<?xml version="1.0" encoding="UTF-8"?>

<!-- generated on 2026-02-17 19:57:53 by Eclipse SUMO netedit Version 1.19.0
<configuration xmlns:xsi="http://www.w3.org/2001/XMLSchema-instance" xsi:noNamespaceSchemaLocation="http://sumo.dlr.de/xsd/neteditConfiguration.xsd">

    <input>
        <sumo-net-file value="C:\Users\kriehl\Documents\GitHub\sumoITScontrol\demo_simulation_models\example_intersection_management\Network.net.xml"/>
    </input>

    <output>
        <output-file value="C:\Users\kriehl\Documents\GitHub\sumoITScontrol\demo_simulation_models\example_intersection_management\Network.net.xml"/>
        <output.street-names value="true"/>
    </output>

    <processing>
        <geometry.min-radius.fix.railways value="false"/>
        <geometry.max-grade.fix value="false"/>
        <offset.disable-normalization value="true"/>
        <lefthand value="0"/>
    </processing>

    <junctions>
        <no-internal-links value="false"/>
        <no-turnarounds value="true"/>
        <junctions.corner-detail value="5"/>
        <junctions.limit-turn-speed value="5.50"/>
        <rectangular-lane-cut value="0"/>
    </junctions>

    <pedestrian>
        <walkingareas value="1"/>
    </pedestrian>

</configuration>
-->

<net version="1.16" junctionCornerDetail="5" walkingareas="true" limitTurnSpeed="5.50" xmlns:xsi="http://www.w3.org/2001/XMLSchema-instance" xsi:noNamespaceSchemaLocation="http://sumo.dlr.de/xsd/net_file.xsd">

    <location netOffset="-523057.66,-5396240.58" convBoundary="841.28,1030.87,2197.83,2159.27" origBoundary="9.313579,48.718529,9.391231,48.740657" projParameter="+proj=utm +zone=32 +ellps=WGS84 +datum=WGS84 +units=m +no_defs"/>

    <type id="highway.cycleway" priority="1" numLanes="1" speed="5.56" allow="bicycle" oneway="0" width="2.00"/>
    <type id="highway.footway" priority="1" numLanes="1" speed="2.78" allow="pedestrian" oneway="1" width="2.00"/>
    <type id="highway.living_street" priority="2" numLanes="1" speed="2.78" disallow="tram rail_urban rail rail_electric rail_fast ship" oneway="0"/>
    <type id="highway.path" priority="1" numLanes="1" speed="5.56" allow="pedestrian bicycle" oneway="0" width="2.00"/>
    <type id="highway.pedestrian" priority="1" numLanes="1" speed="2.78" allow="pedestrian" oneway="1" width="2.00"/>
    <type id="highway.residential" priority="3" numLanes="1" speed="13.89" disallow="tram rail_urban rail rail_electric rail_fast ship" oneway="0"/>
    <type id="highway.secondary" priority="11" numLanes="1" speed="27.78" disallow="tram rail_urban rail rail_electric rail_fast ship" oneway="0"/>
    <type id="highway.secondary_link" priority="6" numLanes="1" speed="22.22" disallow="tram rail_urban rail rail_electric rail_fast ship" oneway="0"/>
    <type id="highway.service" priority="1" numLanes="1" speed="5.56" allow="pedestrian delivery bicycle" oneway="0"/>
    <type id="highway.steps" priority="1" numLanes="1" speed="1.39" allow="pedestrian" oneway="1" width="2.00"/>
    <type id="highway.tertiary" priority="10" numLanes="1" speed="22.22" disallow="tram rail_urban rail rail_electric rail_fast ship" oneway="0"/>
    <type id="highway.tertiary_link" priority="5" numLanes="1" speed="22.22" disallow="tram rail_urban rail rail_electric rail_fast ship" oneway="0"/>
    <type id="highway.track" priority="1" numLanes="1" speed="5.56" allow="pedestrian motorcycle moped bicycle" oneway="0"/>
    <type id="highway.unclassified" priority="4" numLanes="1" speed="13.89" disallow="tram rail_urban rail rail_electric rail_fast ship" oneway="0"/>

    <edge id=":1011603769_w0" function="walkingarea">
        <lane id=":1011603769_w0_0" index="0" allow="pedestrian" speed="2.78" length="2.99" width="2.00" shape="1770.58,1492.29 1771.25,1490.41 1768.41,1489.42 1767.77,1491.32"/>
    </edge>
    <edge id=":1011603784_w0" function="walkingarea">
        <lane id=":1011603784_w0_0" index="0" allow="pedestrian" speed="2.78" length="0.30" width="2.00" shape="1820.54,1510.00 1821.20,1508.12 1820.92,1508.02 1820.26,1509.90"/>
    </edge>
    <edge id=":10223034340_0" function="internal">
        <lane id=":10223034340_0_0" index="0" disallow="tram rail_urban rail rail_electric rail_fast ship" speed="8.33" length="4.41" shape="1897.77,1661.76 1896.57,1661.25 1895.73,1660.92 1894.88,1660.65 1893.63,1660.28"/>
    </edge>
    <edge id=":10223034340_1" function="internal">
        <lane id=":10223034340_1_0" index="0" disallow="tram rail_urban rail rail_electric rail_fast ship" speed="8.33" length="4.80" shape="1894.51,1657.20 1895.88,1657.60 1896.81,1657.91 1897.72,1658.26 1899.03,1658.82"/>
    </edge>
    <edge id=":10223034340_w0" function="walkingarea">
        <lane id=":10223034340_w0_0" index="0" allow="pedestrian" speed="2.78" length="4.83" width="3.20" shape="1897.14,1663.23 1899.66,1657.35 1898.95,1656.86 1898.75,1656.55 1898.66,1656.19 1898.67,1655.79 1898.79,1655.34 1896.91,1654.67 1896.46,1655.41 1896.17,1655.63 1895.81,1655.74 1895.41,1655.76 1894.96,1655.67 1893.18,1661.82 1894.68,1662.26 1895.19,1662.43 1895.70,1662.63 1896.32,1662.88"/>
    </edge>
    <edge id=":10223052676_0" function="internal">
        <lane id=":10223052676_0_0" index="0" disallow="tram rail_urban rail rail_electric rail_fast ship" speed="8.33" length="5.10" shape="1854.45,1654.75 1849.35,1654.77"/>
    </edge>
    <edge id=":10223052676_1" function="internal">
        <lane id=":10223052676_1_0" index="0" disallow="tram rail_urban rail rail_electric rail_fast ship" speed="8.33" length="5.31" shape="1849.23,1651.58 1854.54,1651.56"/>
    </edge>
    <edge id=":10223052676_w0" function="walkingarea">
        <lane id=":10223052676_w0_0" index="0" allow="pedestrian" speed="2.78" length="5.07" width="3.20" shape="1850.96,1657.88 1852.96,1657.81 1853.10,1656.98 1853.30,1656.70 1853.58,1656.50 1853.95,1656.38 1854.41,1656.35 1854.58,1649.96 1849.17,1649.98 1849.41,1656.37 1850.25,1656.51 1850.55,1656.72 1850.76,1657.02 1850.90,1657.40"/>
    </edge>
    <edge id=":10223052684_0" function="internal">
        <lane id=":10223052684_0_0" index="0" disallow="tram rail_urban rail rail_electric rail_fast ship" speed="8.33" length="0.15" shape="1913.11,1669.32 1913.07,1669.30 1913.05,1669.28 1913.02,1669.27 1912.98,1669.25"/>
    </edge>
    <edge id=":10223052684_1" function="internal">
        <lane id=":10223052684_1_0" index="0" disallow="tram rail_urban rail rail_electric rail_fast ship" speed="8.33" length="0.44" shape="1914.43,1666.40 1914.55,1666.46 1914.63,1666.50 1914.71,1666.55 1914.82,1666.61"/>
    </edge>
    <edge id=":10223052684_w0" function="walkingarea">
        <lane id=":10223052684_w0_0" index="0" allow="pedestrian" speed="2.78" length="2.23" width="3.20" shape="1912.26,1670.68 1915.67,1665.26 1915.49,1665.15 1915.42,1665.11 1915.35,1665.07 1915.27,1665.03 1915.16,1664.97 1912.26,1670.68"/>
    </edge>
    <edge id=":10223056991_w0" function="walkingarea">
        <lane id=":10223056991_w0_0" index="0" allow="pedestrian" speed="2.78" length="4.65" width="3.20" shape="1683.08,1850.07 1684.31,1848.49 1683.74,1847.84 1683.63,1847.49 1683.63,1847.12 1683.74,1846.74 1683.97,1846.33 1678.67,1842.73 1678.39,1844.68 1678.91,1845.85 1679.86,1847.13 1681.25,1848.54"/>
    </edge>
    <edge id=":10223056994_0" function="internal">
        <lane id=":10223056994_0_0" index="0" disallow="tram rail_urban rail rail_electric rail_fast ship" speed="8.33" length="5.00" shape="1698.58,1821.45 1695.85,1825.64"/>
    </edge>
    <edge id=":10223056994_1" function="internal">
        <lane id=":10223056994_1_0" index="0" disallow="tram rail_urban rail rail_electric rail_fast ship" speed="8.33" length="4.98" shape="1693.17,1823.89 1695.89,1819.71"/>
    </edge>
    <edge id=":10223056994_w0" function="walkingarea">
        <lane id=":10223056994_w0_0" index="0" allow="pedestrian" speed="2.78" length="5.01" width="3.20" shape="1699.17,1826.22 1700.44,1824.68 1699.79,1823.93 1699.65,1823.54 1699.62,1823.14 1699.71,1822.73 1699.92,1822.32 1694.55,1818.85 1691.83,1823.01 1697.19,1826.52 1697.77,1825.93 1698.10,1825.82 1698.43,1825.83 1698.79,1825.96"/>
    </edge>
    <edge id=":10223073653_0" function="internal">
        <lane id=":10223073653_0_0" index="0" disallow="tram rail_urban rail rail_electric rail_fast ship" speed="8.33" length="4.95" shape="1930.12,1885.83 1925.49,1884.08"/>
    </edge>
    <edge id=":10223073653_1" function="internal">
        <lane id=":10223073653_1_0" index="0" disallow="tram rail_urban rail rail_electric rail_fast ship" speed="8.33" length="5.00" shape="1926.60,1881.07 1931.27,1882.84"/>
    </edge>
    <edge id=":10223073653_w0" function="walkingarea">
        <lane id=":10223073653_w0_0" index="0" allow="pedestrian" speed="2.78" length="5.01" width="3.20" shape="1929.55,1887.32 1931.85,1881.35 1931.15,1880.90 1930.98,1880.61 1930.92,1880.28 1930.98,1879.91 1931.16,1879.49 1929.41,1878.53 1928.78,1879.34 1928.42,1879.57 1928.03,1879.69 1927.61,1879.69 1927.15,1879.57 1924.94,1885.58"/>
    </edge>
    <edge id=":10223073657_0" function="internal">
        <lane id=":10223073657_0_0" index="0" disallow="tram rail_urban rail rail_electric rail_fast ship" speed="8.33" length="5.02" shape="1955.00,1787.92 1950.03,1787.16"/>
    </edge>
    <edge id=":10223073657_1" function="internal">
        <lane id=":10223073657_1_0" index="0" disallow="tram rail_urban rail rail_electric rail_fast ship" speed="8.33" length="5.06" shape="1950.49,1784.00 1955.50,1784.76"/>
    </edge>
    <edge id=":10223073657_w0" function="walkingarea">
        <lane id=":10223073657_w0_0" index="0" allow="pedestrian" speed="2.78" length="5.01" width="3.20" shape="1954.75,1789.50 1955.75,1783.18 1950.73,1782.42 1949.80,1788.75 1950.61,1789.05 1950.87,1789.31 1951.05,1789.65 1951.14,1790.07 1951.13,1790.57 1953.12,1790.76 1953.37,1789.96 1953.60,1789.70 1953.91,1789.54 1954.29,1789.47"/>
    </edge>
    <edge id=":10223073659_0" function="internal">
        <lane id=":10223073659_0_0" index="0" disallow="tram rail_urban rail rail_electric rail_fast ship" speed="8.33" length="5.53" shape="1969.90,1900.61 1964.64,1898.90"/>
    </edge>
    <edge id=":10223073659_1" function="internal">
        <lane id=":10223073659_1_0" index="0" disallow="tram rail_urban rail rail_electric rail_fast ship" speed="8.33" length="5.25" shape="1965.71,1895.89 1970.71,1897.51"/>
    </edge>
    <edge id=":10223073659_w0" function="walkingarea">
        <lane id=":10223073659_w0_0" index="0" allow="pedestrian" speed="2.78" length="5.23" width="3.20" shape="1969.49,1902.16 1971.11,1895.96 1970.30,1895.51 1970.02,1895.13 1969.82,1894.65 1969.70,1894.07 1969.66,1893.39 1967.66,1893.38 1967.50,1894.16 1967.31,1894.38 1967.03,1894.49 1966.68,1894.49 1966.25,1894.38 1964.10,1900.41"/>
    </edge>
    <edge id=":1036023893_0" function="internal">
        <lane id=":1036023893_0_0" index="0" allow="pedestrian bicycle" speed="6.95" length="2.40" width="2.00" shape="1492.17,1566.29 1491.55,1566.61 1491.20,1566.96 1490.86,1567.34 1490.27,1567.72"/>
    </edge>
    <edge id=":1036023893_1" function="internal">
        <lane id=":1036023893_1_0" index="0" allow="pedestrian bicycle" speed="6.95" length="2.67" width="2.00" shape="1488.90,1564.83 1489.64,1564.58 1490.19,1564.57 1490.75,1564.57 1491.51,1564.40"/>
    </edge>
    <edge id=":1036023893_2" function="internal">
        <lane id=":1036023893_2_0" index="0" disallow="tram rail_urban rail rail_electric rail_fast ship" speed="3.65" length="1.24" shape="1488.90,1564.83 1490.13,1565.01"/>
    </edge>
    <edge id=":1036023893_3" function="internal">
        <lane id=":1036023893_3_0" index="0" disallow="tram rail_urban rail rail_electric rail_fast ship" speed="3.65" length="3.43" shape="1490.13,1565.01 1490.33,1565.03 1491.03,1565.59 1491.02,1566.48 1490.27,1567.72"/>
    </edge>
    <edge id=":1036023893_w0" function="walkingarea">
        <lane id=":1036023893_w0_0" index="0" allow="pedestrian" speed="2.78" length="2.89" width="3.20" shape="1492.50,1567.24 1491.18,1563.46 1490.09,1563.52 1489.68,1563.36 1489.27,1563.23 1488.81,1563.20 1488.22,1563.38 1490.96,1569.16"/>
    </edge>
    <edge id=":10805404406_w0" function="walkingarea">
        <lane id=":10805404406_w0_0" index="0" allow="pedestrian" speed="2.78" length="4.04" width="2.00" shape="1738.27,1270.98 1740.18,1270.38 1739.97,1269.24 1740.01,1268.73 1740.14,1268.28 1740.37,1267.87 1740.69,1267.50 1739.32,1266.04 1738.13,1267.09 1737.67,1267.39 1737.17,1267.65 1736.54,1267.91 1735.69,1268.24 1736.42,1270.10 1737.25,1269.95 1737.58,1270.05 1737.87,1270.25 1738.09,1270.56"/>
    </edge>
    <edge id=":10805404408_0" function="internal">
        <lane id=":10805404408_0_0" index="0" allow="pedestrian delivery bicycle" speed="5.56" length="5.08" shape="1753.02,1264.54 1751.45,1259.70"/>
    </edge>
    <edge id=":10805404408_1" function="internal">
        <lane id=":10805404408_1_0" index="0" allow="pedestrian delivery bicycle" speed="3.65" length="4.67" shape="1753.02,1264.54 1753.45,1263.16 1754.10,1262.55 1754.98,1262.70 1756.09,1263.63"/>
    </edge>
    <edge id=":10805404408_2" function="internal">
        <lane id=":10805404408_2_0" index="0" allow="pedestrian delivery bicycle" speed="5.56" length="5.25" shape="1754.47,1258.64 1756.09,1263.63"/>
    </edge>
    <edge id=":10805404408_3" function="internal">
        <lane id=":10805404408_3_0" index="0" allow="pedestrian delivery bicycle" speed="3.65" length="4.67" shape="1754.47,1258.64 1754.12,1260.04 1753.50,1260.68 1752.61,1260.57 1751.45,1259.70"/>
    </edge>
    <edge id=":10805404408_w0" function="walkingarea">
        <lane id=":10805404408_w0_0" index="0" allow="pedestrian" speed="2.78" length="5.04" width="3.20" shape="1751.49,1264.99 1757.62,1263.17 1755.98,1258.11 1749.95,1260.23 1750.06,1261.07 1749.96,1261.41 1749.75,1261.70 1749.44,1261.93 1749.01,1262.11 1749.63,1264.02 1750.47,1263.92 1750.81,1264.03 1751.09,1264.24 1751.32,1264.56"/>
    </edge>
    <edge id=":10805404410_w0" function="walkingarea">
        <lane id=":10805404410_w0_0" index="0" allow="pedestrian" speed="2.78" length="4.13" width="2.00" shape="1746.33,1286.82 1746.20,1284.82 1745.31,1284.67 1744.94,1284.44 1744.63,1284.10 1744.38,1283.65 1744.18,1283.09 1742.26,1283.64 1742.32,1284.46 1742.19,1284.76 1741.96,1284.99 1741.62,1285.14 1741.17,1285.22 1741.36,1287.21"/>
    </edge>
    <edge id=":10814786374_0" function="internal">
        <lane id=":10814786374_0_0" index="0" allow="pedestrian delivery bicycle" speed="3.65" length="4.67" shape="1986.26,1547.95 1986.98,1549.19 1986.98,1550.09 1986.27,1550.63 1984.84,1550.81"/>
    </edge>
    <edge id=":10814786386_w0" function="walkingarea">
        <lane id=":10814786386_w0_0" index="0" allow="pedestrian" speed="2.78" length="3.55" width="2.00" shape="1942.56,1704.20 1941.09,1702.85 1940.35,1703.45 1940.09,1703.48 1939.90,1703.32 1939.79,1702.98 1939.76,1702.46 1937.75,1704.87 1938.34,1706.99 1940.15,1707.84 1940.86,1706.37 1941.15,1705.88 1941.49,1705.42 1941.94,1704.89"/>
    </edge>
    <edge id=":10814786387_w0" function="walkingarea">
        <lane id=":10814786387_w0_0" index="0" allow="pedestrian" speed="2.78" length="2.89" width="2.00" shape="1945.10,1700.26 1943.32,1699.36 1942.82,1699.99 1942.53,1700.11 1942.22,1700.10 1941.89,1699.96 1941.53,1699.69 1940.18,1701.17 1940.81,1701.96 1940.93,1702.35 1940.92,1702.74 1940.78,1703.11 1940.50,1703.48 1941.97,1704.84 1943.34,1703.30 1943.77,1702.71 1944.15,1702.09 1944.57,1701.31"/>
    </edge>
    <edge id=":10814786403_w0" function="walkingarea">
        <lane id=":10814786403_w0_0" index="0" allow="pedestrian" speed="2.78" length="0.10" width="2.00" shape="2042.57,1606.57 2043.75,1604.95 2042.45,1606.48"/>
    </edge>
    <edge id=":10814786404_w0" function="walkingarea">
        <lane id=":10814786404_w0_0" index="0" allow="pedestrian" speed="2.78" length="0.10" width="2.00" shape="2045.76,1608.89 2047.03,1607.35 2046.94,1607.27 2045.76,1608.89"/>
    </edge>
    <edge id=":10814792306_w0" function="walkingarea">
        <lane id=":10814792306_w0_0" index="0" allow="pedestrian" speed="2.78" length="1.40" width="2.00" shape="2060.75,1619.42 2059.38,1620.87 2060.85,1622.22 2061.43,1621.26 2061.49,1620.79 2061.40,1620.33 2061.15,1619.87"/>
    </edge>
    <edge id=":10814792314_w0" function="walkingarea">
        <lane id=":10814792314_w0_0" index="0" allow="pedestrian" speed="2.78" length="0.25" width="2.00" shape="2056.59,1618.23 2057.96,1616.78 2057.80,1616.62 2056.38,1618.04"/>
    </edge>
    <edge id=":10814792331_w0" function="walkingarea">
        <lane id=":10814792331_w0_0" index="0" allow="pedestrian" speed="2.78" length="2.86" width="2.00" shape="1880.26,1557.06 1878.39,1556.35 1877.94,1557.06 1877.64,1557.26 1877.29,1557.35 1876.90,1557.33 1876.46,1557.20 1875.72,1559.06 1876.44,1559.52 1876.63,1559.82 1876.71,1560.16 1876.69,1560.56 1876.55,1561.00 1878.40,1561.76"/>
    </edge>
    <edge id=":10814792344_0" function="internal">
        <lane id=":10814792344_0_0" index="0" disallow="pedestrian" speed="12.05" length="1.10" shape="2042.21,1709.03 2041.89,1709.02 2041.66,1709.02 2041.44,1709.06 2041.13,1709.14"/>
    </edge>
    <edge id=":10814792344_w0" function="walkingarea">
        <lane id=":10814792344_w0_0" index="0" allow="pedestrian" speed="2.78" length="0.30" width="2.00" shape="2041.53,1710.69 2042.03,1712.62 2042.13,1710.63 2042.00,1710.62 2041.91,1710.62 2041.83,1710.62 2041.75,1710.63 2041.65,1710.66"/>
    </edge>
    <edge id=":10814792344_w1" function="walkingarea">
        <lane id=":10814792344_w1_0" index="0" allow="pedestrian" speed="2.78" length="2.85" width="2.00" shape="2042.46,1704.24 2042.57,1702.24 2041.89,1702.21 2041.39,1702.20 2040.98,1702.22 2040.57,1702.28 2040.08,1702.39 2039.43,1702.56 2039.93,1704.49 2040.45,1704.36 2040.85,1704.27 2041.18,1704.22 2041.51,1704.20 2041.92,1704.21"/>
    </edge>
    <edge id=":10814792345_0" function="internal">
        <lane id=":10814792345_0_0" index="0" allow="private passenger taxi delivery bicycle evehicle" speed="9.72" length="0.48" shape="2061.26,1685.46 2061.17,1685.35 2061.11,1685.28 2061.04,1685.21 2060.94,1685.11"/>
    </edge>
    <edge id=":10814792345_1" function="internal">
        <lane id=":10814792345_1_0" index="0" allow="private passenger taxi delivery bicycle evehicle" speed="9.72" length="0.90" shape="2063.14,1682.79 2063.33,1682.98 2063.46,1683.11 2063.58,1683.25 2063.75,1683.46"/>
    </edge>
    <edge id=":10814792345_w0" function="walkingarea">
        <lane id=":10814792345_w0_0" index="0" allow="pedestrian" speed="2.78" length="0.13" width="2.00" shape="2059.83,1686.27 2058.46,1687.72 2060.01,1686.47 2059.98,1686.42 2059.95,1686.39 2059.93,1686.36 2059.91,1686.34 2059.88,1686.31"/>
    </edge>
    <edge id=":10814792345_w1" function="walkingarea">
        <lane id=":10814792345_w1_0" index="0" allow="pedestrian" speed="2.78" length="1.25" width="2.00" shape="2065.00,1682.45 2066.56,1681.20 2066.37,1680.97 2066.23,1680.80 2066.11,1680.66 2065.99,1680.53 2065.83,1680.38 2065.61,1680.18 2064.25,1681.64 2064.41,1681.79 2064.54,1681.91 2064.64,1682.02 2064.73,1682.13 2064.85,1682.27"/>
    </edge>
    <edge id=":10814792349_0" function="internal">
        <lane id=":10814792349_0_0" index="0" disallow="pedestrian tram rail_urban rail rail_electric rail_fast ship" speed="11.11" length="27.46" shape="2019.27,1730.57 2014.51,1725.30 2010.66,1719.92 2007.41,1714.14 2004.47,1707.66"/>
    </edge>
    <edge id=":10814792349_1" function="internal">
        <lane id=":10814792349_1_0" index="0" disallow="pedestrian tram rail_urban rail rail_electric rail_fast ship" speed="13.83" length="22.19" shape="2027.25,1713.37 2020.97,1717.40 2016.34,1721.30 2013.38,1725.07 2012.07,1728.72"/>
    </edge>
    <edge id=":10814792349_2" function="internal">
        <lane id=":10814792349_2_0" index="0" disallow="pedestrian tram rail_urban rail rail_electric rail_fast ship" speed="13.89" length="24.72" shape="2019.54,1705.26 2016.97,1711.43 2014.88,1716.74 2013.27,1722.18 2012.07,1728.72"/>
    </edge>
    <edge id=":10814792349_3" function="internal">
        <lane id=":10814792349_3_0" index="0" disallow="pedestrian tram rail_urban rail rail_electric rail_fast ship" speed="13.89" length="21.52" shape="2008.90,1728.30 2009.31,1722.19 2008.62,1717.73 2006.97,1713.39 2004.47,1707.66"/>
    </edge>
    <edge id=":10814792349_4" function="internal">
        <lane id=":10814792349_4_0" index="0" disallow="pedestrian tram rail_urban rail rail_electric rail_fast ship" speed="13.89" length="25.53" shape="2008.90,1728.30 2010.13,1721.63 2011.82,1715.92 2013.97,1710.34 2016.58,1704.04"/>
    </edge>
    <edge id=":10814792349_5" function="internal">
        <lane id=":10814792349_5_0" index="0" disallow="pedestrian tram rail_urban rail rail_electric rail_fast ship" speed="3.65" length="4.67" shape="2008.90,1728.30 2009.85,1727.22 2010.70,1726.92 2011.44,1727.43 2012.07,1728.72"/>
    </edge>
    <edge id=":10814792349_w0" function="walkingarea">
        <lane id=":10814792349_w0_0" index="0" allow="pedestrian" speed="2.78" length="4.34" width="2.00" shape="2013.66,1728.94 2015.64,1729.20 2016.72,1733.11 2018.13,1731.70 2016.82,1730.43 2015.74,1729.49 2014.88,1728.86 2014.24,1728.57 2013.84,1728.59"/>
    </edge>
    <edge id=":10814792349_w1" function="walkingarea">
        <lane id=":10814792349_w1_0" index="0" allow="pedestrian" speed="2.78" length="12.02" width="2.00" shape="2022.67,1727.18 2024.08,1725.77 2029.04,1716.48 2028.04,1714.75 2024.76,1716.90 2022.43,1719.02 2021.06,1721.11 2020.64,1723.17 2021.17,1725.19"/>
    </edge>
    <edge id=":10814792349_w2" function="walkingarea">
        <lane id=":10814792349_w2_0" index="0" allow="pedestrian" speed="2.78" length="3.19" width="2.00" shape="2024.85,1709.21 2023.85,1707.47 2022.88,1706.62 2021.03,1705.86 2020.31,1707.97 2020.13,1709.46 2020.50,1710.33 2021.40,1710.57 2022.86,1710.20"/>
    </edge>
    <edge id=":10814792349_w3" function="walkingarea">
        <lane id=":10814792349_w3_0" index="0" allow="pedestrian" speed="2.78" length="4.96" width="2.00" shape="2015.10,1703.44 2013.25,1702.68 2010.76,1705.06 2008.91,1705.83 2009.81,1707.52 2010.76,1708.37 2011.77,1708.40 2012.83,1707.58 2013.94,1705.93"/>
    </edge>
    <edge id=":10814792349_w4" function="walkingarea">
        <lane id=":10814792349_w4_0" index="0" allow="pedestrian" speed="2.78" length="19.76" width="2.00" shape="2003.00,1708.28 2001.15,1709.04 2005.33,1727.82 2007.31,1728.09 2007.73,1723.78 2007.65,1720.57 2007.11,1717.92 2006.14,1715.34 2004.76,1712.30"/>
    </edge>
    <edge id=":10828119451_0" function="internal">
        <lane id=":10828119451_0_0" index="0" disallow="pedestrian tram rail_urban rail rail_electric rail_fast ship" speed="13.89" length="8.33" shape="1330.24,1202.63 1325.68,1209.58"/>
        <lane id=":10828119451_0_1" index="1" disallow="pedestrian tram rail_urban rail rail_electric rail_fast ship" speed="13.89" length="8.33" shape="1327.57,1200.86 1323.00,1207.84"/>
    </edge>
    <edge id=":10828119451_2" function="internal">
        <lane id=":10828119451_2_0" index="0" disallow="pedestrian tram rail_urban rail rail_electric rail_fast ship" speed="7.09" length="8.57" shape="1317.17,1200.89 1319.68,1201.42 1321.81,1201.29 1323.55,1200.52 1324.91,1199.09"/>
    </edge>
    <edge id=":10828119451_3" function="internal">
        <lane id=":10828119451_3_0" index="0" disallow="pedestrian tram rail_urban rail rail_electric rail_fast ship" speed="13.89" length="8.37" shape="1320.32,1206.09 1324.91,1199.09"/>
    </edge>
    <edge id=":10828119451_w0" function="walkingarea">
        <lane id=":10828119451_w0_0" index="0" allow="pedestrian" speed="2.78" length="8.30" width="2.00" shape="1327.02,1210.46 1328.69,1211.55 1333.24,1204.62 1331.57,1203.51"/>
    </edge>
    <edge id=":10828119451_w1" function="walkingarea">
        <lane id=":10828119451_w1_0" index="0" allow="pedestrian" speed="2.78" length="4.85" width="2.00" shape="1323.57,1198.20 1321.91,1197.10 1318.25,1197.46 1317.65,1199.36 1319.00,1199.70 1320.20,1199.83 1321.26,1199.74 1322.18,1199.44 1322.95,1198.93"/>
    </edge>
    <edge id=":10874227092_0" function="internal">
        <lane id=":10874227092_0_0" index="0" disallow="tram rail_urban rail rail_electric rail_fast ship" speed="13.89" length="8.00" shape="1438.93,1079.26 1433.49,1085.13"/>
    </edge>
    <edge id=":10874227092_1" function="internal">
        <lane id=":10874227092_1_0" index="0" disallow="tram rail_urban rail rail_electric rail_fast ship" speed="13.89" length="8.40" shape="1431.15,1082.96 1432.45,1080.81 1432.69,1078.94 1432.93,1077.06 1434.23,1074.91"/>
        <lane id=":10874227092_1_1" index="1" disallow="tram rail_urban rail rail_electric rail_fast ship" speed="13.89" length="8.40" shape="1431.15,1082.96 1436.58,1077.09"/>
    </edge>
    <edge id=":10874227092_w0" function="walkingarea">
        <lane id=":10874227092_w0_0" index="0" allow="pedestrian" speed="2.78" length="7.51" width="3.20" shape="1440.10,1080.34 1433.05,1073.83 1431.61,1076.62 1431.51,1077.85 1431.42,1079.08 1431.01,1080.40 1429.97,1081.87 1434.67,1086.22"/>
    </edge>
    <edge id=":10874227094_0" function="internal">
        <lane id=":10874227094_0_0" index="0" disallow="pedestrian tram rail_urban rail rail_electric rail_fast ship" speed="13.89" length="8.41" shape="1380.15,1141.83 1378.82,1143.97 1378.56,1145.85 1378.29,1147.73 1376.94,1149.85"/>
        <lane id=":10874227094_0_1" index="1" disallow="pedestrian tram rail_urban rail rail_electric rail_fast ship" speed="13.89" length="8.41" shape="1380.15,1141.83 1374.63,1147.63"/>
    </edge>
    <edge id=":10874227094_2" function="internal">
        <lane id=":10874227094_2_0" index="0" disallow="pedestrian tram rail_urban rail rail_electric rail_fast ship" speed="13.89" length="7.97" shape="1372.33,1145.41 1377.82,1139.64"/>
    </edge>
    <edge id=":10874227094_w0" function="walkingarea">
        <lane id=":10874227094_w0_0" index="0" allow="pedestrian" speed="2.78" length="9.17" width="3.20" shape="1378.09,1150.96 1379.54,1152.34 1381.32,1142.93 1378.99,1140.74 1376.66,1138.54 1369.73,1142.92 1371.17,1144.30"/>
    </edge>
    <edge id=":10874276534_w0" function="walkingarea">
        <lane id=":10874276534_w0_0" index="0" allow="pedestrian" speed="2.78" length="3.96" width="2.00" shape="1239.67,1438.61 1241.53,1437.87 1241.38,1437.04 1241.46,1436.70 1241.66,1436.40 1241.96,1436.15 1242.38,1435.95 1241.68,1434.08 1240.34,1434.56 1239.85,1434.67 1239.35,1434.69 1238.76,1434.61 1237.98,1434.42 1237.48,1436.36 1238.36,1436.78 1238.75,1437.11 1239.09,1437.53 1239.40,1438.03"/>
    </edge>
    <edge id=":10874276536_w0" function="walkingarea">
        <lane id=":10874276536_w0_0" index="0" allow="pedestrian" speed="2.78" length="4.60" width="2.00" shape="1260.31,1426.10 1258.83,1424.76 1257.92,1425.37 1257.28,1425.58 1256.52,1425.73 1255.65,1425.81 1254.65,1425.82 1254.62,1427.82 1255.34,1427.96 1255.50,1428.12 1255.51,1428.35 1255.40,1428.64 1255.14,1428.98 1256.66,1430.29"/>
    </edge>
    <edge id=":1094695834_w0" function="walkingarea">
        <lane id=":1094695834_w0_0" index="0" allow="pedestrian" speed="2.78" length="0.10" width="2.00" shape="1401.84,1413.61 1402.64,1411.78 1402.58,1411.76 1402.56,1411.75 1402.54,1411.74 1402.51,1411.73 1401.84,1413.61"/>
    </edge>
    <edge id=":10947641381_w0" function="walkingarea">
        <lane id=":10947641381_w0_0" index="0" allow="pedestrian" speed="2.78" length="2.40" width="2.00" shape="1723.22,1206.60 1725.07,1205.84 1724.17,1203.62 1722.31,1204.37"/>
    </edge>
    <edge id=":10947641421_0" function="internal">
        <lane id=":10947641421_0_0" index="0" allow="bicycle" speed="5.56" length="5.14" width="2.00" shape="1729.19,1211.46 1727.82,1212.12 1726.87,1212.56 1725.89,1212.92 1724.44,1213.38"/>
    </edge>
    <edge id=":10947641424_w0" function="walkingarea">
        <lane id=":10947641424_w0_0" index="0" allow="pedestrian" speed="2.78" length="4.67" width="3.20" shape="1563.32,1115.74 1568.88,1112.58 1567.16,1111.34 1565.86,1111.29 1564.28,1111.63 1562.41,1112.35 1560.24,1113.46 1561.27,1115.18 1562.08,1114.91 1562.43,1114.95 1562.76,1115.10 1563.05,1115.37"/>
    </edge>
    <edge id=":10961937694_0" function="internal">
        <lane id=":10961937694_0_0" index="0" disallow="tram rail_urban rail rail_electric rail_fast ship" speed="8.33" length="0.14" shape="1564.03,1121.25 1563.91,1121.32"/>
    </edge>
    <edge id=":10961937694_1" function="internal">
        <lane id=":10961937694_1_0" index="0" disallow="tram rail_urban rail rail_electric rail_fast ship" speed="3.65" length="4.67" shape="1564.03,1121.25 1562.60,1121.10 1561.87,1120.57 1561.86,1119.68 1562.55,1118.41"/>
    </edge>
    <edge id=":10961937694_2" function="internal">
        <lane id=":10961937694_2_0" index="0" disallow="tram rail_urban rail rail_electric rail_fast ship" speed="8.33" length="0.43" shape="1562.26,1118.73 1562.35,1118.64 1562.40,1118.56 1562.45,1118.49 1562.55,1118.41"/>
    </edge>
    <edge id=":10961937694_3" function="internal">
        <lane id=":10961937694_3_0" index="0" disallow="tram rail_urban rail rail_electric rail_fast ship" speed="3.65" length="4.48" shape="1562.26,1118.73 1563.65,1118.76 1564.38,1119.20 1564.47,1120.05 1563.91,1121.32"/>
    </edge>
    <edge id=":10961937694_w0" function="walkingarea">
        <lane id=":10961937694_w0_0" index="0" allow="pedestrian" speed="2.78" length="2.19" width="3.20" shape="1564.77,1122.67 1561.81,1117.00 1561.64,1117.11 1561.59,1117.17 1561.54,1117.23 1561.49,1117.30 1561.40,1117.38 1564.77,1122.67"/>
    </edge>
    <edge id=":10961937696_0" function="internal">
        <lane id=":10961937696_0_0" index="0" disallow="tram rail_urban rail rail_electric rail_fast ship" speed="8.33" length="5.86" shape="1546.59,1127.30 1551.85,1124.73"/>
    </edge>
    <edge id=":10961937696_w0" function="walkingarea">