<?xml version="1.0" encoding="UTF-8"?>
<routes xmlns:xsi="http://www.w3.org/2001/XMLSchema-instance" xsi:noNamespaceSchemaLocation="http://sumo.dlr.de/xsd/routes_file.xsd">
   <!-- Vehicle Types -->
   <vType id="sumo_car" length="5.00" maxSpeed="13.89" vClass="passenger" color="white" accel="1.5" decel="4.5" sigma="0.5" />
   <vType id="sumo_motorcycle" length="2.20" maxSpeed="16.67" vClass="motorcycle" color="green" accel="2.0" decel="5.0" sigma="0.5" />
   <vType id="sumo_transporter" length="6.50" maxSpeed="11.11" vClass="delivery" color="0,150,255" accel="1.0" decel="4.0" sigma="0.5" />
   <vType id="sumo_truck" length="15.00" maxSpeed="10.00" vClass="truck" color="255,150,150" accel="0.7" decel="3.5" sigma="0.5" />
   <vType id="sumo_bus" length="12.00" maxSpeed="13.89" vClass="bus" color="yellow" accel="1.2" decel="1.0" sigma="0.5" />
   
   	<!-- Routes -->
	<route id="route_E1_A4" edges="-183419042#1 26249185#0 26249185#1 26249185#30 183049934 1164287131#0 60430429#1"/>
	<route id="route_E1_A7" edges="-183419042#1 26249185#0 26249185#1 26249185#30 183049934 1164287131#0 183049933#0 38361908#1 E3 E4"/>
	<route id="route_E1_A9" edges="-183419042#1 26249185#0 26249185#1 26249185#30 183049934 1164287131#0 183049933#0 38361908#1 E3 E1 758088377#1 -25497525"/>
	<route id="route_E1_A10" edges="-183419042#1 26249185#0 26249185#1 26249185#30 183049934 1164287131#0 183049933#0 38361908#1 E3 E1 758088377#1 758088377#2 22889927#0 25576697#0"/>
	<route id="route_E1_A11" edges="-183419042#1 26249185#0 26249185#1 26249185#30 183049934 1164287131#0 183049933#0 38361908#1 E3 E1 758088377#1 758088377#2 22889927#0 22889927#2 -89290458#1"/>
	<route id="route_E1_A12" edges="-183419042#1 26249185#0 26249185#1 26249185#30 183049934 1164287131#0 183049933#0 38361908#1 E3 E1 758088377#1 758088377#2 22889927#0 22889927#2 22889927#3 22889927#4 -23320502"/>
	<route id="route_E1_A13" edges="-183419042#1 26249185#0 26249185#1 26249185#30 183049934 1164287131#0 183049933#0 38361908#1 E3 E1 758088377#1 758088377#2 22889927#0 22889927#2 22889927#3 22889927#4 387296014#0 387296014#1 23320456#1"/>
	<route id="route_E1_A14" edges="-183419042#1 26249185#0 26249185#1 26249185#30 183049934 1164287131#0 183049933#0 38361908#1 E3 E1 758088377#1 758088377#2 22889927#0 22889927#2 22889927#3 22889927#4 387296014#0 -E0"/>
	<route id="route_E1_A15" edges="-183419042#1 26249185#0 26249185#1 26249185#30 183049934 1164287131#0 183049933#0 38361908#1 E3 E1 758088377#1 758088377#2 22889927#0 22889927#2 22889927#3 22889927#4 387296014#0 387296014#1 696225646#1 696225646#2 696225646#3 394114218#1"/>
	<route id="route_E1_A16" edges="-183419042#1 26249185#0 26249185#1 26249185#30 183049934 1164287131#0 183049933#0 38361908#1 E3 E1 758088377#1 758088377#2 22889927#0 22889927#2 22889927#3 22889927#4 387296014#0 387296014#1 696225646#1 696225646#2 696225646#3 130569446 E5 E6 -E10 -E9 -1162834479#1"/>
	<route id="route_E1_A17" edges="-183419042#1 26249185#0 26249185#1 26249185#30 183049934 1164287131#0 183049933#0 38361908#1 E3 E1 758088377#1 758088377#2 22889927#0 22889927#2 22889927#3 22889927#4 387296014#0 387296014#1 696225646#1 696225646#2 696225646#3 130569446 E5 E6 208691154#0"/>
	<route id="route_E1_A18" edges="-183419042#1 26249185#0 26249185#1 26249185#30 183049934 1164287131#0 183049933#0 38361908#1 E3 E1 758088377#1 758088377#2 22889927#0 22889927#2 22889927#3 22889927#4 387296014#0 387296014#1 696225646#1 696225646#2 696225646#3 130569446 E5 E6 -E15 -E13"/>
	<route id="route_E2_A3" edges="-183419042#1 26249185#0 26249185#1 26249185#30 331752492#0 331752492#1 331752492#2"/>
	<route id="route_E3_A1" edges="921020465#1 921020464#0 921020464#1 183419043#0 183419043#1"/>
	<route id="route_E4_A4" edges="921020465#1 921020464#0 921020464#1 183049934 1164287131#0 60430429#1"/>
	<route id="route_E4_A7" edges="921020465#1 921020464#0 921020464#1 183049934 1164287131#0 183049933#0 38361908#1 E3 E4"/>
	<route id="route_E4_A9" edges="921020465#1 921020464#0 921020464#1 183049934 1164287131#0 183049933#0 38361908#1 E3 E1 758088377#1 -25497525"/>
	<route id="route_E4_A10" edges="921020465#1 921020464#0 921020464#1 183049934 1164287131#0 183049933#0 38361908#1 E3 E1 758088377#1 758088377#2 22889927#0 25576697#0"/>
	<route id="route_E4_A11" edges="921020465#1 921020464#0 921020464#1 183049934 1164287131#0 183049933#0 38361908#1 E3 E1 758088377#1 758088377#2 22889927#0 22889927#2 -89290458#1"/>
	<route id="route_E4_A12" edges="921020465#1 921020464#0 921020464#1 183049934 1164287131#0 183049933#0 38361908#1 E3 E1 758088377#1 758088377#2 22889927#0 22889927#2 22889927#3 22889927#4 -23320502"/>
	<route id="route_E4_A13" edges="921020465#1 921020464#0 921020464#1 183049934 1164287131#0 183049933#0 38361908#1 E3 E1 758088377#1 758088377#2 22889927#0 22889927#2 22889927#3 22889927#4 387296014#0 387296014#1 23320456#1"/>
	<route id="route_E4_A14" edges="921020465#1 921020464#0 921020464#1 183049934 1164287131#0 183049933#0 38361908#1 E3 E1 758088377#1 758088377#2 22889927#0 22889927#2 22889927#3 22889927#4 387296014#0 -E0"/>
	<route id="route_E4_A15" edges="921020465#1 921020464#0 921020464#1 183049934 1164287131#0 183049933#0 38361908#1 E3 E1 758088377#1 758088377#2 22889927#0 22889927#2 22889927#3 22889927#4 387296014#0 387296014#1 696225646#1 696225646#2 696225646#3 394114218#1"/>
	<route id="route_E4_A16" edges="921020465#1 921020464#0 921020464#1 183049934 1164287131#0 183049933#0 38361908#1 E3 E1 758088377#1 758088377#2 22889927#0 22889927#2 22889927#3 22889927#4 387296014#0 387296014#1 696225646#1 696225646#2 696225646#3 130569446 E5 E6 -E10 -E9 -1162834479#1"/>
	<route id="route_E4_A17" edges="921020465#1 921020464#0 921020464#1 183049934 1164287131#0 183049933#0 38361908#1 E3 E1 758088377#1 758088377#2 22889927#0 22889927#2 22889927#3 22889927#4 387296014#0 387296014#1 696225646#1 696225646#2 696225646#3 130569446 E5 E6 208691154#0"/>
	<route id="route_E4_A18" edges="921020465#1 921020464#0 921020464#1 183049934 1164287131#0 183049933#0 38361908#1 E3 E1 758088377#1 758088377#2 22889927#0 22889927#2 22889927#3 22889927#4 387296014#0 387296014#1 696225646#1 696225646#2 696225646#3 130569446 E5 E6 -E15 -E13"/>
	<route id="route_E5_A3" edges="183049957#0 183049957#1 331752492#1 331752492#2"/>
	<route id="route_E6_A2" edges="-1169441386 -331752492#1 -331752492#0 694116204#0 694116204#1 694116204#2"/>
	<route id="route_E7_A1" edges="-1169441386 -331752492#1 -331752492#0 183419043#0 183419043#1"/>
	<route id="route_E7_A4" edges="-1169441386 -331752492#1 -331752492#0 183049934 1164287131#0 60430429#1"/>
	<route id="route_E7_A7" edges="-1169441386 -331752492#1 -331752492#0 183049934 1164287131#0 183049933#0 38361908#1 E3 E4"/>
	<route id="route_E7_A9" edges="-1169441386 -331752492#1 -331752492#0 183049934 1164287131#0 183049933#0 38361908#1 E3 E1 758088377#1 -25497525"/>
	<route id="route_E7_A10" edges="-1169441386 -331752492#1 -331752492#0 183049934 1164287131#0 183049933#0 38361908#1 E3 E1 758088377#1 758088377#2 22889927#0 25576697#0"/>
	<route id="route_E7_A11" edges="-1169441386 -331752492#1 -331752492#0 183049934 1164287131#0 183049933#0 38361908#1 E3 E1 758088377#1 758088377#2 22889927#0 22889927#2 -89290458#1"/>
	<route id="route_E7_A12" edges="-1169441386 -331752492#1 -331752492#0 183049934 1164287131#0 183049933#0 38361908#1 E3 E1 758088377#1 758088377#2 22889927#0 22889927#2 22889927#3 22889927#4 -23320502"/>
	<route id="route_E7_A13" edges="-1169441386 -331752492#1 -331752492#0 183049934 1164287131#0 183049933#0 38361908#1 E3 E1 758088377#1 758088377#2 22889927#0 22889927#2 22889927#3 22889927#4 387296014#0 387296014#1 23320456#1"/>
	<route id="route_E7_A14" edges="-1169441386 -331752492#1 -331752492#0 183049934 1164287131#0 183049933#0 38361908#1 E3 E1 758088377#1 758088377#2 22889927#0 22889927#2 22889927#3 22889927#4 387296014#0 -E0"/>
	<route id="route_E7_A15" edges="-1169441386 -331752492#1 -331752492#0 183049934 1164287131#0 183049933#0 38361908#1 E3 E1 758088377#1 758088377#2 22889927#0 22889927#2 22889927#3 22889927#4 387296014#0 387296014#1 696225646#1 696225646#2 696225646#3 394114218#1"/>
	<route id="route_E7_A16" edges="-1169441386 -331752492#1 -331752492#0 183049934 1164287131#0 183049933#0 38361908#1 E3 E1 758088377#1 758088377#2 22889927#0 22889927#2 22889927#3 22889927#4 387296014#0 387296014#1 696225646#1 696225646#2 696225646#3 130569446 E5 E6 -E10 -E9 -1162834479#1"/>
	<route id="route_E7_A17" edges="-1169441386 -331752492#1 -331752492#0 183049934 1164287131#0 183049933#0 38361908#1 E3 E1 758088377#1 758088377#2 22889927#0 22889927#2 22889927#3 22889927#4 387296014#0 387296014#1 696225646#1 696225646#2 696225646#3 130569446 E5 E6 208691154#0"/>
	<route id="route_E7_A18" edges="-1169441386 -331752492#1 -331752492#0 183049934 1164287131#0 183049933#0 38361908#1 E3 E1 758088377#1 758088377#2 22889927#0 22889927#2 22889927#3 22889927#4 387296014#0 387296014#1 696225646#1 696225646#2 696225646#3 130569446 E5 E6 -E15 -E13"/>
	<route id="route_E8_A1" edges="-60430429#1 -1164287131#1 38361907 183419043#0 183419043#1"/>
	<route id="route_E8_A2" edges="-60430429#1 -1164287131#1 38361907 694116204#0 694116204#1 694116204#2"/>
	<route id="route_E8_A7" edges="-60430429#1 183049933#0 38361908#1 E3 E4"/>
	<route id="route_E8_A9" edges="-60430429#1 183049933#0 38361908#1 E3 E1 758088377#1 -25497525"/>
	<route id="route_E8_A10" edges="-60430429#1 183049933#0 38361908#1 E3 E1 758088377#1 758088377#2 22889927#0 25576697#0"/>
	<route id="route_E8_A11" edges="-60430429#1 183049933#0 38361908#1 E3 E1 758088377#1 758088377#2 22889927#0 22889927#2 -89290458#1"/>
	<route id="route_E8_A12" edges="-60430429#1 183049933#0 38361908#1 E3 E1 758088377#1 758088377#2 22889927#0 22889927#2 22889927#3 22889927#4 -23320502"/>
	<route id="route_E8_A13" edges="-60430429#1 183049933#0 38361908#1 E3 E1 758088377#1 758088377#2 22889927#0 22889927#2 22889927#3 22889927#4 387296014#0 387296014#1 23320456#1"/>
	<route id="route_E8_A14" edges="-60430429#1 183049933#0 38361908#1 E3 E1 758088377#1 758088377#2 22889927#0 22889927#2 22889927#3 22889927#4 387296014#0 -E0"/>
	<route id="route_E8_A15" edges="-60430429#1 183049933#0 38361908#1 E3 E1 758088377#1 758088377#2 22889927#0 22889927#2 22889927#3 22889927#4 387296014#0 387296014#1 696225646#1 696225646#2 696225646#3 394114218#1"/>
	<route id="route_E8_A16" edges="-60430429#1 183049933#0 38361908#1 E3 E1 758088377#1 758088377#2 22889927#0 22889927#2 22889927#3 22889927#4 387296014#0 387296014#1 696225646#1 696225646#2 696225646#3 130569446 E5 E6 -E10 -E9 -1162834479#1"/>
	<route id="route_E8_A17" edges="-60430429#1 183049933#0 38361908#1 E3 E1 758088377#1 758088377#2 22889927#0 22889927#2 22889927#3 22889927#4 387296014#0 387296014#1 696225646#1 696225646#2 696225646#3 130569446 E5 E6 208691154#0"/>
	<route id="route_E8_A18" edges="-60430429#1 183049933#0 38361908#1 E3 E1 758088377#1 758088377#2 22889927#0 22889927#2 22889927#3 22889927#4 387296014#0 387296014#1 696225646#1 696225646#2 696225646#3 130569446 E5 E6 -E15 -E13"/>
	<route id="route_E9_A1" edges="-25973410#1 -183049933#0 -1164287131#1 38361907 183419043#0 183419043#1"/>
	<route id="route_E9_A2" edges="-25973410#1 -183049933#0 -1164287131#1 38361907 694116204#0 694116204#1 694116204#2"/>
	<route id="route_E9_A4" edges="-25973410#1 -183049933#0 60430429#1"/>
	<route id="route_E9_A6" edges="-25973410#1 -758088375#0"/>
	<route id="route_E10_A5" edges="758088375#0 25973410#1"/>
	<route id="route_E11_A7" edges="758088375#0 38361908#1 E3 E4"/>
	<route id="route_E11_A9" edges="758088375#0 38361908#1 E3 E1 758088377#1 -25497525"/>
	<route id="route_E11_A10" edges="758088375#0 38361908#1 E3 E1 758088377#1 758088377#2 22889927#0 25576697#0"/>
	<route id="route_E11_A11" edges="758088375#0 38361908#1 E3 E1 758088377#1 758088377#2 22889927#0 22889927#2 -89290458#1"/>
	<route id="route_E11_A12" edges="758088375#0 38361908#1 E3 E1 758088377#1 758088377#2 22889927#0 22889927#2 22889927#3 22889927#4 -23320502"/>
	<route id="route_E11_A13" edges="758088375#0 38361908#1 E3 E1 758088377#1 758088377#2 22889927#0 22889927#2 22889927#3 22889927#4 387296014#0 387296014#1 23320456#1"/>
	<route id="route_E11_A14" edges="758088375#0 38361908#1 E3 E1 758088377#1 758088377#2 22889927#0 22889927#2 22889927#3 22889927#4 387296014#0 -E0"/>
	<route id="route_E11_A15" edges="758088375#0 38361908#1 E3 E1 758088377#1 758088377#2 22889927#0 22889927#2 22889927#3 22889927#4 387296014#0 387296014#1 696225646#1 696225646#2 696225646#3 394114218#1"/>
	<route id="route_E11_A16" edges="758088375#0 38361908#1 E3 E1 758088377#1 758088377#2 22889927#0 22889927#2 22889927#3 22889927#4 387296014#0 387296014#1 696225646#1 696225646#2 696225646#3 130569446 E5 E6 -E10 -E9 -1162834479#1"/>
	<route id="route_E11_A17" edges="758088375#0 38361908#1 E3 E1 758088377#1 758088377#2 22889927#0 22889927#2 22889927#3 22889927#4 387296014#0 387296014#1 696225646#1 696225646#2 696225646#3 130569446 E5 E6 208691154#0"/>
	<route id="route_E11_A18" edges="758088375#0 38361908#1 E3 E1 758088377#1 758088377#2 22889927#0 22889927#2 22889927#3 22889927#4 387296014#0 387296014#1 696225646#1 696225646#2 696225646#3 130569446 E5 E6 -E15 -E13"/>
	<route id="route_E12_A8" edges="-E4 -E2"/>
	<route id="route_E12_A9" edges="-E4 E1 758088377#1 -25497525"/>
	<route id="route_E12_A10" edges="-E4 E1 758088377#1 758088377#2 22889927#0 25576697#0"/>
	<route id="route_E12_A11" edges="-E4 E1 758088377#1 758088377#2 22889927#0 22889927#2 -89290458#1"/>
	<route id="route_E12_A12" edges="-E4 E1 758088377#1 758088377#2 22889927#0 22889927#2 22889927#3 22889927#4 -23320502"/>
	<route id="route_E12_A13" edges="-E4 E1 758088377#1 758088377#2 22889927#0 22889927#2 22889927#3 22889927#4 387296014#0 387296014#1 23320456#1"/>
	<route id="route_E12_A14" edges="-E4 E1 758088377#1 758088377#2 22889927#0 22889927#2 22889927#3 22889927#4 387296014#0 -E0"/>
	<route id="route_E12_A15" edges="-E4 E1 758088377#1 758088377#2 22889927#0 22889927#2 22889927#3 22889927#4 387296014#0 387296014#1 696225646#1 696225646#2 696225646#3 394114218#1"/>
	<route id="route_E12_A16" edges="-E4 E1 758088377#1 758088377#2 22889927#0 22889927#2 22889927#3 22889927#4 387296014#0 387296014#1 696225646#1 696225646#2 696225646#3 130569446 E5 E6 -E10 -E9 -1162834479#1"/>
	<route id="route_E12_A17" edges="-E4 E1 758088377#1 758088377#2 22889927#0 22889927#2 22889927#3 22889927#4 387296014#0 387296014#1 696225646#1 696225646#2 696225646#3 130569446 E5 E6 208691154#0"/>
	<route id="route_E12_A18" edges="-E4 E1 758088377#1 758088377#2 22889927#0 22889927#2 22889927#3 22889927#4 387296014#0 387296014#1 696225646#1 696225646#2 696225646#3 130569446 E5 E6 -E15 -E13"/>
	<route id="route_E13_A1" edges="-E4 -E3 -38361908#1 -183049933#0 -1164287131#1 38361907 183419043#0 183419043#1"/>
	<route id="route_E13_A2" edges="-E4 -E3 -38361908#1 -183049933#0 -1164287131#1 38361907 694116204#0 694116204#1 694116204#2"/>
	<route id="route_E13_A4" edges="-E4 -E3 -38361908#1 -183049933#0 60430429#1"/>
	<route id="route_E13_A5" edges="-E4 -E3 -38361908#1 25973410#1"/>
	<route id="route_E13_A6" edges="-E4 -E3 -38361908#1 -758088375#0"/>
	<route id="route_E14_A1" edges="25497525 -758088377#1 -E1 -E3 -38361908#1 -183049933#0 -1164287131#1 38361907 183419043#0 183419043#1"/>
	<route id="route_E14_A2" edges="25497525 -758088377#1 -E1 -E3 -38361908#1 -183049933#0 -1164287131#1 38361907 694116204#0 694116204#1 694116204#2"/>
	<route id="route_E14_A4" edges="25497525 -758088377#1 -E1 -E3 -38361908#1 -183049933#0 60430429#1"/>
	<route id="route_E14_A5" edges="25497525 -758088377#1 -E1 -E3 -38361908#1 25973410#1"/>
	<route id="route_E14_A6" edges="25497525 -758088377#1 -E1 -E3 -38361908#1 -758088375#0"/>
	<route id="route_E14_A7" edges="25497525 -758088377#1 -E1 E4"/>
	<route id="route_E14_A10" edges="25497525 758088377#2 22889927#0 25576697#0"/>
	<route id="route_E14_A11" edges="25497525 758088377#2 22889927#0 22889927#2 -89290458#1"/>
	<route id="route_E14_A12" edges="25497525 758088377#2 22889927#0 22889927#2 22889927#3 22889927#4 -23320502"/>
	<route id="route_E14_A13" edges="25497525 758088377#2 22889927#0 22889927#2 22889927#3 22889927#4 387296014#0 387296014#1 23320456#1"/>
	<route id="route_E14_A14" edges="25497525 758088377#2 22889927#0 22889927#2 22889927#3 22889927#4 387296014#0 -E0"/>
	<route id="route_E14_A15" edges="25497525 758088377#2 22889927#0 22889927#2 22889927#3 22889927#4 387296014#0 387296014#1 696225646#1 696225646#2 696225646#3 394114218#1"/>
	<route id="route_E14_A16" edges="25497525 758088377#2 22889927#0 22889927#2 22889927#3 22889927#4 387296014#0 387296014#1 696225646#1 696225646#2 696225646#3 130569446 E5 E6 -E10 -E9 -1162834479#1"/>
	<route id="route_E14_A17" edges="25497525 758088377#2 22889927#0 22889927#2 22889927#3 22889927#4 387296014#0 387296014#1 696225646#1 696225646#2 696225646#3 130569446 E5 E6 208691154#0"/>
	<route id="route_E14_A18" edges="25497525 758088377#2 22889927#0 22889927#2 22889927#3 22889927#4 387296014#0 387296014#1 696225646#1 696225646#2 696225646#3 130569446 E5 E6 -E15 -E13"/>
	<route id="route_E15_A1" edges="-25576697#0 -22889927#0 -758088377#2 -758088377#1 -E1 -E3 -38361908#1 -183049933#0 -1164287131#1 38361907 183419043#0 183419043#1"/>
	<route id="route_E15_A2" edges="-25576697#0 -22889927#0 -758088377#2 -758088377#1 -E1 -E3 -38361908#1 -183049933#0 -1164287131#1 38361907 694116204#0 694116204#1 694116204#2"/>
	<route id="route_E15_A4" edges="-25576697#0 -22889927#0 -758088377#2 -758088377#1 -E1 -E3 -38361908#1 -183049933#0 60430429#1"/>
	<route id="route_E15_A5" edges="-25576697#0 -22889927#0 -758088377#2 -758088377#1 -E1 -E3 -38361908#1 25973410#1"/>
	<route id="route_E15_A6" edges="-25576697#0 -22889927#0 -758088377#2 -758088377#1 -E1 -E3 -38361908#1 -758088375#0"/>
	<route id="route_E15_A7" edges="-25576697#0 -22889927#0 -758088377#2 -758088377#1 -E1 E4"/>
	<route id="route_E15_A9" edges="-25576697#0 -22889927#0 -758088377#2 -25497525"/>
	<route id="route_E15_A11" edges="-25576697#0 22889927#2 -89290458#1"/>
	<route id="route_E15_A12" edges="-25576697#0 22889927#2 22889927#3 22889927#4 -23320502"/>
	<route id="route_E15_A13" edges="-25576697#0 22889927#2 22889927#3 22889927#4 387296014#0 387296014#1 23320456#1"/>
	<route id="route_E15_A14" edges="-25576697#0 22889927#2 22889927#3 22889927#4 387296014#0 -E0"/>
	<route id="route_E15_A15" edges="-25576697#0 22889927#2 22889927#3 22889927#4 387296014#0 387296014#1 696225646#1 696225646#2 696225646#3 394114218#1"/>
	<route id="route_E15_A16" edges="-25576697#0 22889927#2 22889927#3 22889927#4 387296014#0 387296014#1 696225646#1 696225646#2 696225646#3 130569446 E5 E6 -E10 -E9 -1162834479#1"/>
	<route id="route_E15_A17" edges="-25576697#0 22889927#2 22889927#3 22889927#4 387296014#0 387296014#1 696225646#1 696225646#2 696225646#3 130569446 E5 E6 208691154#0"/>
	<route id="route_E15_A18" edges="-25576697#0 22889927#2 22889927#3 22889927#4 387296014#0 387296014#1 696225646#1 696225646#2 696225646#3 130569446 E5 E6 -E15 -E13"/>
	<route id="route_E16_A1" edges="89290458#1 -22889927#2 -22889927#0 -758088377#2 -758088377#1 -E1 -E3 -38361908#1 -183049933#0 -1164287131#1 38361907 183419043#0 183419043#1"/>
	<route id="route_E16_A2" edges="89290458#1 -22889927#2 -22889927#0 -758088377#2 -758088377#1 -E1 -E3 -38361908#1 -183049933#0 -1164287131#1 38361907 694116204#0 694116204#1 694116204#2"/>
	<route id="route_E16_A4" edges="89290458#1 -22889927#2 -22889927#0 -758088377#2 -758088377#1 -E1 -E3 -38361908#1 -183049933#0 60430429#1"/>
	<route id="route_E16_A5" edges="89290458#1 -22889927#2 -22889927#0 -758088377#2 -758088377#1 -E1 -E3 -38361908#1 25973410#1"/>
	<route id="route_E16_A6" edges="89290458#1 -22889927#2 -22889927#0 -758088377#2 -758088377#1 -E1 -E3 -38361908#1 -758088375#0"/>
	<route id="route_E16_A7" edges="89290458#1 -22889927#2 -22889927#0 -758088377#2 -758088377#1 -E1 E4"/>
	<route id="route_E16_A9" edges="89290458#1 -22889927#2 -22889927#0 -758088377#2 -25497525"/>
	<route id="route_E16_A10" edges="89290458#1 -22889927#2 25576697#0"/>
	<route id="route_E16_A12" edges="89290458#1 22889927#3 22889927#4 -23320502"/>
	<route id="route_E16_A13" edges="89290458#1 22889927#3 22889927#4 387296014#0 387296014#1 23320456#1"/>
	<route id="route_E16_A14" edges="89290458#1 22889927#3 22889927#4 387296014#0 -E0"/>
	<route id="route_E16_A15" edges="89290458#1 22889927#3 22889927#4 387296014#0 387296014#1 696225646#1 696225646#2 696225646#3 394114218#1"/>
	<route id="route_E16_A16" edges="89290458#1 22889927#3 22889927#4 387296014#0 387296014#1 696225646#1 696225646#2 696225646#3 130569446 E5 E6 -E10 -E9 -1162834479#1"/>
	<route id="route_E16_A17" edges="89290458#1 22889927#3 22889927#4 387296014#0 387296014#1 696225646#1 696225646#2 696225646#3 130569446 E5 E6 208691154#0"/>
	<route id="route_E16_A18" edges="89290458#1 22889927#3 22889927#4 387296014#0 387296014#1 696225646#1 696225646#2 696225646#3 130569446 E5 E6 -E15 -E13"/>
	<route id="route_E17_A1" edges="23320502 -22889927#4 -22889927#3 -22889927#2 -22889927#0 -758088377#2 -758088377#1 -E1 -E3 -38361908#1 -183049933#0 -1164287131#1 38361907 183419043#0 183419043#1"/>
	<route id="route_E17_A2" edges="23320502 -22889927#4 -22889927#3 -22889927#2 -22889927#0 -758088377#2 -758088377#1 -E1 -E3 -38361908#1 -183049933#0 -1164287131#1 38361907 694116204#0 694116204#1 694116204#2"/>
	<route id="route_E17_A4" edges="23320502 -22889927#4 -22889927#3 -22889927#2 -22889927#0 -758088377#2 -758088377#1 -E1 -E3 -38361908#1 -183049933#0 60430429#1"/>
	<route id="route_E17_A5" edges="23320502 -22889927#4 -22889927#3 -22889927#2 -22889927#0 -758088377#2 -758088377#1 -E1 -E3 -38361908#1 25973410#1"/>
	<route id="route_E17_A6" edges="23320502 -22889927#4 -22889927#3 -22889927#2 -22889927#0 -758088377#2 -758088377#1 -E1 -E3 -38361908#1 -758088375#0"/>
	<route id="route_E17_A7" edges="23320502 -22889927#4 -22889927#3 -22889927#2 -22889927#0 -758088377#2 -758088377#1 -E1 E4"/>
	<route id="route_E17_A9" edges="23320502 -22889927#4 -22889927#3 -22889927#2 -22889927#0 -758088377#2 -25497525"/>
	<route id="route_E17_A10" edges="23320502 -22889927#4 -22889927#3 -22889927#2 25576697#0"/>
	<route id="route_E17_A11" edges="23320502 -22889927#4 -22889927#3 -89290458#1"/>
	<route id="route_E17_A13" edges="23320502 387296014#0 387296014#1 23320456#1"/>
	<route id="route_E17_A14" edges="23320502 387296014#0 -E0"/>
	<route id="route_E17_A15" edges="23320502 387296014#0 387296014#1 696225646#1 696225646#2 696225646#3 394114218#1"/>
	<route id="route_E17_A16" edges="23320502 387296014#0 387296014#1 696225646#1 696225646#2 696225646#3 130569446 E5 E6 -E10 -E9 -1162834479#1"/>
	<route id="route_E17_A17" edges="23320502 387296014#0 387296014#1 696225646#1 696225646#2 696225646#3 130569446 E5 E6 208691154#0"/>
	<route id="route_E17_A18" edges="23320502 387296014#0 387296014#1 696225646#1 696225646#2 696225646#3 130569446 E5 E6 -E15 -E13"/>
	<route id="route_E18_A1" edges="-23320456#1 -387296014#1 -387296014#0 -22889927#4 -22889927#3 -22889927#2 -22889927#0 -758088377#2 -758088377#1 -E1 -E3 -38361908#1 -183049933#0 -1164287131#1 38361907 183419043#0 183419043#1"/>
	<route id="route_E18_A2" edges="-23320456#1 -387296014#1 -387296014#0 -22889927#4 -22889927#3 -22889927#2 -22889927#0 -758088377#2 -758088377#1 -E1 -E3 -38361908#1 -183049933#0 -1164287131#1 38361907 694116204#0 694116204#1 694116204#2"/>
	<route id="route_E18_A4" edges="-23320456#1 -387296014#1 -387296014#0 -22889927#4 -22889927#3 -22889927#2 -22889927#0 -758088377#2 -758088377#1 -E1 -E3 -38361908#1 -183049933#0 60430429#1"/>
	<route id="route_E18_A5" edges="-23320456#1 -387296014#1 -387296014#0 -22889927#4 -22889927#3 -22889927#2 -22889927#0 -758088377#2 -758088377#1 -E1 -E3 -38361908#1 25973410#1"/>
	<route id="route_E18_A6" edges="-23320456#1 -387296014#1 -387296014#0 -22889927#4 -22889927#3 -22889927#2 -22889927#0 -758088377#2 -758088377#1 -E1 -E3 -38361908#1 -758088375#0"/>
	<route id="route_E18_A7" edges="-23320456#1 -387296014#1 -387296014#0 -22889927#4 -22889927#3 -22889927#2 -22889927#0 -758088377#2 -758088377#1 -E1 E4"/>
	<route id="route_E18_A9" edges="-23320456#1 -387296014#1 -387296014#0 -22889927#4 -22889927#3 -22889927#2 -22889927#0 -758088377#2 -25497525"/>
	<route id="route_E18_A10" edges="-23320456#1 -387296014#1 -387296014#0 -22889927#4 -22889927#3 -22889927#2 25576697#0"/>
	<route id="route_E18_A11" edges="-23320456#1 -387296014#1 -387296014#0 -22889927#4 -22889927#3 -89290458#1"/>
	<route id="route_E18_A12" edges="-23320456#1 -387296014#1 -387296014#0 -23320502"/>
	<route id="route_E18_A14" edges="-23320456#1 -387296014#1 -E0"/>
	<route id="route_E18_A15" edges="-23320456#1 696225646#1 696225646#2 696225646#3 394114218#1"/>
	<route id="route_E18_A16" edges="-23320456#1 696225646#1 696225646#2 696225646#3 130569446 E5 E6 -E10 -E9 -1162834479#1"/>
	<route id="route_E18_A17" edges="-23320456#1 696225646#1 696225646#2 696225646#3 130569446 E5 E6 208691154#0"/>
	<route id="route_E18_A18" edges="-23320456#1 696225646#1 696225646#2 696225646#3 130569446 E5 E6 -E15 -E13"/>
	<route id="route_E19_A1" edges="E0 387296014#1 696225646#1 696225646#2 696225646#3 394114218#1 -394114218#1 -696225646#3 -696225646#2 -696225646#1 -387296014#1 -387296014#0 -22889927#4 -22889927#3 -22889927#2 -22889927#0 -758088377#2 -758088377#1 -E1 -E3 -38361908#1 -183049933#0 -1164287131#1 38361907 183419043#0 183419043#1"/>
	<route id="route_E19_A2" edges="E0 387296014#1 696225646#1 696225646#2 696225646#3 394114218#1 -394114218#1 -696225646#3 -696225646#2 -696225646#1 -387296014#1 -387296014#0 -22889927#4 -22889927#3 -22889927#2 -22889927#0 -758088377#2 -758088377#1 -E1 -E3 -38361908#1 -183049933#0 -1164287131#1 38361907 694116204#0 694116204#1 694116204#2"/>
	<route id="route_E19_A4" edges="E0 387296014#1 696225646#1 696225646#2 696225646#3 394114218#1 -394114218#1 -696225646#3 -696225646#2 -696225646#1 -387296014#1 -387296014#0 -22889927#4 -22889927#3 -22889927#2 -22889927#0 -758088377#2 -758088377#1 -E1 -E3 -38361908#1 -183049933#0 60430429#1"/>
	<route id="route_E19_A5" edges="E0 387296014#1 696225646#1 696225646#2 696225646#3 394114218#1 -394114218#1 -696225646#3 -696225646#2 -696225646#1 -387296014#1 -387296014#0 -22889927#4 -22889927#3 -22889927#2 -22889927#0 -758088377#2 -758088377#1 -E1 -E3 -38361908#1 25973410#1"/>
	<route id="route_E19_A6" edges="E0 387296014#1 696225646#1 696225646#2 696225646#3 394114218#1 -394114218#1 -696225646#3 -696225646#2 -696225646#1 -387296014#1 -387296014#0 -22889927#4 -22889927#3 -22889927#2 -22889927#0 -758088377#2 -758088377#1 -E1 -E3 -38361908#1 -758088375#0"/>
	<route id="route_E19_A7" edges="E0 387296014#1 696225646#1 696225646#2 696225646#3 394114218#1 -394114218#1 -696225646#3 -696225646#2 -696225646#1 -387296014#1 -387296014#0 -22889927#4 -22889927#3 -22889927#2 -22889927#0 -758088377#2 -758088377#1 -E1 E4"/>
	<route id="route_E19_A9" edges="E0 387296014#1 696225646#1 696225646#2 696225646#3 394114218#1 -394114218#1 -696225646#3 -696225646#2 -696225646#1 -387296014#1 -387296014#0 -22889927#4 -22889927#3 -22889927#2 -22889927#0 -758088377#2 -25497525"/>
	<route id="route_E19_A10" edges="E0 387296014#1 696225646#1 696225646#2 696225646#3 394114218#1 -394114218#1 -696225646#3 -696225646#2 -696225646#1 -387296014#1 -387296014#0 -22889927#4 -22889927#3 -22889927#2 25576697#0"/>
	<route id="route_E19_A11" edges="E0 387296014#1 696225646#1 696225646#2 696225646#3 394114218#1 -394114218#1 -696225646#3 -696225646#2 -696225646#1 -387296014#1 -387296014#0 -22889927#4 -22889927#3 -89290458#1"/>
	<route id="route_E19_A12" edges="E0 387296014#1 696225646#1 696225646#2 696225646#3 394114218#1 -394114218#1 -696225646#3 -696225646#2 -696225646#1 -387296014#1 -387296014#0 -23320502"/>
	<route id="route_E19_A13" edges="E0 387296014#1 23320456#1"/>
	<route id="route_E19_A15" edges="E0 387296014#1 696225646#1 696225646#2 696225646#3 394114218#1"/>
	<route id="route_E19_A16" edges="E0 387296014#1 696225646#1 696225646#2 696225646#3 130569446 E5 E6 -E10 -E9 -1162834479#1"/>
	<route id="route_E19_A17" edges="E0 387296014#1 696225646#1 696225646#2 696225646#3 130569446 E5 E6 208691154#0"/>
	<route id="route_E19_A18" edges="E0 387296014#1 696225646#1 696225646#2 696225646#3 130569446 E5 E6 -E15 -E13"/>
	<route id="route_E20_A1" edges="-394114218#1 -696225646#3 -696225646#2 -696225646#1 -387296014#1 -387296014#0 -22889927#4 -22889927#3 -22889927#2 -22889927#0 -758088377#2 -758088377#1 -E1 -E3 -38361908#1 -183049933#0 -1164287131#1 38361907 183419043#0 183419043#1"/>
	<route id="route_E20_A2" edges="-394114218#1 -696225646#3 -696225646#2 -696225646#1 -387296014#1 -387296014#0 -22889927#4 -22889927#3 -22889927#2 -22889927#0 -758088377#2 -758088377#1 -E1 -E3 -38361908#1 -183049933#0 -1164287131#1 38361907 694116204#0 694116204#1 694116204#2"/>
	<route id="route_E20_A4" edges="-394114218#1 -696225646#3 -696225646#2 -696225646#1 -387296014#1 -387296014#0 -22889927#4 -22889927#3 -22889927#2 -22889927#0 -758088377#2 -758088377#1 -E1 -E3 -38361908#1 -183049933#0 60430429#1"/>
	<route id="route_E20_A5" edges="-394114218#1 -696225646#3 -696225646#2 -696225646#1 -387296014#1 -387296014#0 -22889927#4 -22889927#3 -22889927#2 -22889927#0 -758088377#2 -758088377#1 -E1 -E3 -38361908#1 25973410#1"/>
	<route id="route_E20_A6" edges="-394114218#1 -696225646#3 -696225646#2 -696225646#1 -387296014#1 -387296014#0 -22889927#4 -22889927#3 -22889927#2 -22889927#0 -758088377#2 -758088377#1 -E1 -E3 -38361908#1 -758088375#0"/>
	<route id="route_E20_A7" edges="-394114218#1 -696225646#3 -696225646#2 -696225646#1 -387296014#1 -387296014#0 -22889927#4 -22889927#3 -22889927#2 -22889927#0 -758088377#2 -758088377#1 -E1 E4"/>
	<route id="route_E20_A9" edges="-394114218#1 -696225646#3 -696225646#2 -696225646#1 -387296014#1 -387296014#0 -22889927#4 -22889927#3 -22889927#2 -22889927#0 -758088377#2 -25497525"/>
	<route id="route_E20_A10" edges="-394114218#1 -696225646#3 -696225646#2 -696225646#1 -387296014#1 -387296014#0 -22889927#4 -22889927#3 -22889927#2 25576697#0"/>