<?xml version="1.0" encoding="UTF-8"?>

<!-- generated on 2026-01-06 14:51:35 by Eclipse SUMO netedit Version 1.19.0
<configuration xmlns:xsi="http://www.w3.org/2001/XMLSchema-instance" xsi:noNamespaceSchemaLocation="http://sumo.dlr.de/xsd/neteditConfiguration.xsd">

    <input>
        <sumo-net-file value="C:\Users\kriehl\Documents\GitHub\sumoITScontrol\data\example_ramp_metering\Network.net.xml"/>
    </input>

    <output>
        <output-file value="C:\Users\kriehl\Documents\GitHub\sumoITScontrol\data\example_ramp_metering\Network.net.xml"/>
    </output>

    <processing>
        <geometry.min-radius.fix.railways value="false"/>
        <geometry.max-grade.fix value="false"/>
        <offset.disable-normalization value="true"/>
        <lefthand value="0"/>
    </processing>

    <junctions>
        <no-turnarounds value="true"/>
        <junctions.corner-detail value="5"/>
        <junctions.limit-turn-speed value="5.50"/>
        <rectangular-lane-cut value="0"/>
    </junctions>

    <pedestrian>
        <walkingareas value="0"/>
    </pedestrian>

</configuration>
-->

<net version="1.16" junctionCornerDetail="5" limitTurnSpeed="5.50" xmlns:xsi="http://www.w3.org/2001/XMLSchema-instance" xsi:noNamespaceSchemaLocation="http://sumo.dlr.de/xsd/net_file.xsd">

    <location netOffset="0.00,0.00" convBoundary="-600.00,-100.00,3500.00,0.00" origBoundary="-10000000000.00,-10000000000.00,10000000000.00,10000000000.00" projParameter="!"/>

    <edge id=":J0_0" function="internal">
        <lane id=":J0_0_0" index="0" speed="13.89" length="0.10" shape="459.26,-22.16 459.26,-22.16"/>
    </edge>
    <edge id=":J10_0" function="internal">
        <lane id=":J10_0_0" index="0" speed="27.77" length="8.92" shape="2796.00,-11.20 2798.69,-10.20 2800.00,-8.00 2801.31,-5.80 2804.00,-4.80"/>
        <lane id=":J10_0_1" index="1" speed="27.77" length="8.92" shape="2796.00,-8.00 2798.46,-7.50 2800.00,-6.40 2801.54,-5.30 2804.00,-4.80"/>
        <lane id=":J10_0_2" index="2" speed="27.77" length="8.92" shape="2796.00,-4.80 2804.00,-4.80"/>
        <lane id=":J10_0_3" index="3" speed="27.77" length="8.92" shape="2796.00,-1.60 2804.00,-1.60"/>
    </edge>
    <edge id=":J11_0" function="internal">
        <lane id=":J11_0_0" index="0" speed="13.89" length="0.10" shape="1468.07,-17.76 1468.07,-17.76"/>
    </edge>
    <edge id=":J12_0" function="internal">
        <lane id=":J12_0_0" index="0" speed="13.89" length="0.10" shape="2470.70,-20.02 2470.70,-20.02"/>
        <lane id=":J12_0_1" index="1" speed="13.89" length="0.10" shape="2469.27,-17.16 2469.27,-17.16"/>
    </edge>
    <edge id=":J13_0" function="internal">
        <lane id=":J13_0_0" index="0" speed="27.77" length="0.10" shape="-240.71,-4.80 -240.71,-4.80"/>
        <lane id=":J13_0_1" index="1" speed="27.77" length="0.10" shape="-240.71,-1.60 -240.71,-1.60"/>
    </edge>
    <edge id=":J14_0" function="internal">
        <lane id=":J14_0_0" index="0" speed="13.89" length="0.10" shape="371.79,-65.89 371.79,-65.89"/>
    </edge>
    <edge id=":J15_0" function="internal">
        <lane id=":J15_0_0" index="0" speed="13.89" length="0.10" shape="1368.14,-67.72 1368.14,-67.72"/>
    </edge>
    <edge id=":J16_0" function="internal">
        <lane id=":J16_0_0" index="0" speed="13.89" length="0.10" shape="2375.90,-67.42 2375.90,-67.42"/>
        <lane id=":J16_0_1" index="1" speed="13.89" length="0.10" shape="2374.47,-64.56 2374.47,-64.56"/>
    </edge>
    <edge id=":J2_0" function="internal">
        <lane id=":J2_0_0" index="0" speed="10.28" length="3.71" shape="485.90,-8.84 486.89,-8.36 487.60,-8.11 488.36,-8.02 489.46,-8.00"/>
    </edge>
    <edge id=":J2_1" function="internal">
        <lane id=":J2_1_0" index="0" speed="27.77" length="3.76" shape="485.70,-4.80 489.46,-4.80"/>
        <lane id=":J2_1_1" index="1" speed="27.77" length="3.76" shape="485.70,-1.60 489.46,-1.60"/>
    </edge>
    <edge id=":J3_0" function="internal">
        <lane id=":J3_0_0" index="0" speed="20.36" length="15.05" shape="1484.34,-9.62 1487.38,-7.92 1490.25,-6.37 1493.67,-5.24 1498.36,-4.80"/>
    </edge>
    <edge id=":J3_1" function="internal">
        <lane id=":J3_1_0" index="0" speed="27.77" length="15.15" shape="1483.20,-4.80 1498.36,-4.80"/>
        <lane id=":J3_1_1" index="1" speed="27.77" length="15.15" shape="1483.20,-1.60 1498.36,-1.60"/>
    </edge>
    <edge id=":J4_0" function="internal">
        <lane id=":J4_0_0" index="0" speed="10.27" length="4.46" shape="2486.66,-12.04 2487.65,-11.56 2488.36,-11.31 2489.12,-11.22 2490.22,-11.20"/>
        <lane id=":J4_0_1" index="1" speed="12.09" length="4.46" shape="2485.23,-9.18 2486.61,-8.51 2487.62,-8.16 2488.68,-8.02 2490.22,-8.00"/>
    </edge>
    <edge id=":J4_2" function="internal">
        <lane id=":J4_2_0" index="0" speed="27.77" length="4.51" shape="2485.70,-4.80 2490.22,-4.80"/>
        <lane id=":J4_2_1" index="1" speed="27.77" length="4.51" shape="2485.70,-1.60 2490.22,-1.60"/>
    </edge>
    <edge id=":J9_0" function="internal">
        <lane id=":J9_0_0" index="0" speed="27.77" length="8.27" shape="696.00,-8.00 698.46,-7.50 700.00,-6.40 701.54,-5.30 704.00,-4.80"/>
        <lane id=":J9_0_1" index="1" speed="27.77" length="8.27" shape="696.00,-4.80 704.00,-4.80"/>
        <lane id=":J9_0_2" index="2" speed="27.77" length="8.27" shape="696.00,-1.60 704.00,-1.60"/>
    </edge>

    <edge id="E0" from="J1" to="J13" priority="-1">
        <lane id="E0_0" index="0" speed="27.77" length="359.29" shape="-600.00,-4.80 -240.71,-4.80"/>
        <lane id="E0_1" index="1" speed="27.77" length="359.29" shape="-600.00,-1.60 -240.71,-1.60"/>
    </edge>
    <edge id="E0.259" from="J13" to="J2" priority="-1">
        <lane id="E0.259_0" index="0" speed="27.77" length="726.41" shape="-240.71,-4.80 485.70,-4.80"/>
        <lane id="E0.259_1" index="1" speed="27.77" length="726.41" shape="-240.71,-1.60 485.70,-1.60"/>
    </edge>
    <edge id="E1" from="J2" to="J9" priority="-1">
        <lane id="E1_0" index="0" speed="27.77" length="206.54" acceleration="1" shape="489.46,-8.00 696.00,-8.00"/>
        <lane id="E1_1" index="1" speed="27.77" length="206.54" shape="489.46,-4.80 696.00,-4.80" changeRight="army tram rail_urban rail rail_electric rail_fast ship custom1 custom2"/>
        <lane id="E1_2" index="2" speed="27.77" length="206.54" shape="489.46,-1.60 696.00,-1.60"/>
    </edge>
    <edge id="E1.200" from="J9" to="J3" priority="-1">
        <lane id="E1.200_0" index="0" speed="27.77" length="779.20" shape="704.00,-4.80 1483.20,-4.80"/>
        <lane id="E1.200_1" index="1" speed="27.77" length="779.20" shape="704.00,-1.60 1483.20,-1.60"/>
    </edge>
    <edge id="E2" from="J3" to="J4" priority="-1">
        <lane id="E2_0" index="0" speed="27.77" length="987.35" shape="1498.36,-4.80 2485.70,-4.80"/>
        <lane id="E2_1" index="1" speed="27.77" length="987.35" shape="1498.36,-1.60 2485.70,-1.60"/>
    </edge>
    <edge id="E3" from="J4" to="J10" priority="-1">
        <lane id="E3_0" index="0" speed="27.77" length="305.78" acceleration="1" shape="2490.22,-11.20 2796.00,-11.20"/>
        <lane id="E3_1" index="1" speed="27.77" length="305.78" acceleration="1" shape="2490.22,-8.00 2796.00,-8.00"/>
        <lane id="E3_2" index="2" speed="27.77" length="305.78" shape="2490.22,-4.80 2796.00,-4.80" changeRight="army tram rail_urban rail rail_electric rail_fast ship custom1 custom2"/>
        <lane id="E3_3" index="3" speed="27.77" length="305.78" shape="2490.22,-1.60 2796.00,-1.60"/>
    </edge>
    <edge id="E3.300" from="J10" to="J5" priority="-1">
        <lane id="E3.300_0" index="0" speed="27.77" length="696.00" shape="2804.00,-4.80 3500.00,-4.80"/>
        <lane id="E3.300_1" index="1" speed="27.77" length="696.00" shape="2804.00,-1.60 3500.00,-1.60"/>
    </edge>
    <edge id="E4" from="J6" to="J14" priority="-1">
        <lane id="E4_0" index="0" speed="13.89" length="79.46" shape="300.72,-101.43 371.79,-65.89"/>
    </edge>
    <edge id="E4.177" from="J0" to="J2" priority="-1">
        <lane id="E4.177_0" index="0" speed="13.89" length="29.79" shape="459.26,-22.16 485.90,-8.84"/>
    </edge>
    <edge id="E4.79" from="J14" to="J0" priority="-1">
        <lane id="E4.79_0" index="0" speed="13.89" length="97.79" shape="371.79,-65.89 459.26,-22.16"/>
    </edge>
    <edge id="E5" from="J7" to="J15" priority="-1">
        <lane id="E5_0" index="0" speed="13.89" length="75.38" shape="1300.72,-101.43 1368.14,-67.72"/>
    </edge>
    <edge id="E5.187" from="J11" to="J3" priority="-1">
        <lane id="E5.187_0" index="0" speed="13.89" length="18.20" shape="1468.07,-17.76 1484.34,-9.62"/>
    </edge>
    <edge id="E5.75" from="J15" to="J11" priority="-1">
        <lane id="E5.75_0" index="0" speed="13.89" length="111.72" shape="1368.14,-67.72 1468.07,-17.76"/>
    </edge>
    <edge id="E6" from="J8" to="J16" priority="-1">
        <lane id="E6_0" index="0" speed="13.89" length="82.45" shape="2302.15,-104.29 2375.90,-67.42"/>
        <lane id="E6_1" index="1" speed="13.89" length="82.45" shape="2300.72,-101.43 2374.47,-64.56"/>
    </edge>
    <edge id="E6.188" from="J12" to="J4" priority="-1">
        <lane id="E6.188_0" index="0" speed="13.89" length="17.85" shape="2470.70,-20.02 2486.66,-12.04"/>
        <lane id="E6.188_1" index="1" speed="13.89" length="17.85" shape="2469.27,-17.16 2485.23,-9.18"/>
    </edge>
    <edge id="E6.82" from="J16" to="J12" priority="-1">
        <lane id="E6.82_0" index="0" speed="13.89" length="105.99" shape="2375.90,-67.42 2470.70,-20.02"/>
        <lane id="E6.82_1" index="1" speed="13.89" length="105.99" shape="2374.47,-64.56 2469.27,-17.16"/>
    </edge>

    <tlLogic id="J0" type="static" programID="0" offset="0">
        <phase duration="99" state="G"/>
        <phase duration="1"  state="r"/>
    </tlLogic>
    <tlLogic id="J11" type="static" programID="0" offset="0">
        <phase duration="99" state="G"/>
        <phase duration="1"  state="r"/>
    </tlLogic>
    <tlLogic id="J12" type="static" programID="0" offset="0">
        <phase duration="99" state="GG"/>
        <phase duration="1"  state="rr"/>
    </tlLogic>

    <junction id="J0" type="traffic_light" x="458.54" y="-20.73" incLanes="E4.79_0" intLanes=":J0_0_0" shape="458.54,-20.73 459.97,-23.59 458.54,-20.73">
        <request index="0" response="0" foes="0" cont="0"/>
    </junction>
    <junction id="J1" type="dead_end" x="-600.00" y="0.00" incLanes="" intLanes="" shape="-600.00,0.00 -600.00,-6.40"/>
    <junction id="J10" type="unregulated" x="2800.00" y="0.00" incLanes="E3_0 E3_1 E3_2 E3_3" intLanes=":J10_0_0 :J10_0_1 :J10_0_2 :J10_0_3" shape="2804.00,0.00 2804.00,-6.40 2801.98,-6.87 2800.79,-8.06 2799.21,-11.14 2798.02,-12.33 2796.00,-12.80 2796.00,0.00"/>
    <junction id="J11" type="traffic_light" x="1467.35" y="-16.33" incLanes="E5.75_0" intLanes=":J11_0_0" shape="1467.35,-16.33 1468.78,-19.19 1467.35,-16.33">
        <request index="0" response="0" foes="0" cont="0"/>
    </junction>
    <junction id="J12" type="traffic_light" x="2468.55" y="-15.73" incLanes="E6.82_0 E6.82_1" intLanes=":J12_0_0 :J12_0_1" shape="2468.55,-15.73 2471.41,-21.45 2468.55,-15.73">
        <request index="0" response="00" foes="00" cont="0"/>
        <request index="1" response="00" foes="00" cont="0"/>
    </junction>
    <junction id="J13" type="unregulated" x="-240.71" y="0.00" incLanes="E0_0 E0_1" intLanes=":J13_0_0 :J13_0_1" shape="-240.71,0.00 -240.71,-6.40 -240.71,0.00"/>
    <junction id="J14" type="unregulated" x="371.07" y="-64.46" incLanes="E4_0" intLanes=":J14_0_0" shape="371.07,-64.46 372.50,-67.32 371.07,-64.46"/>
    <junction id="J15" type="unregulated" x="1367.42" y="-66.29" incLanes="E5_0" intLanes=":J15_0_0" shape="1367.42,-66.29 1368.85,-69.15 1367.42,-66.29"/>
    <junction id="J16" type="unregulated" x="2373.75" y="-63.13" incLanes="E6_0 E6_1" intLanes=":J16_0_0 :J16_0_1" shape="2373.75,-63.13 2376.61,-68.85 2373.75,-63.13"/>
    <junction id="J2" type="unregulated" x="500.00" y="0.00" incLanes="E4.177_0 E0.259_0 E0.259_1" intLanes=":J2_0_0 :J2_1_0 :J2_1_1" shape="489.46,0.00 489.46,-9.60 488.36,-9.63 487.98,-9.69 487.61,-9.81 487.18,-9.99 486.61,-10.27 485.18,-7.41 486.14,-6.85 486.32,-6.65 486.31,-6.51 486.10,-6.43 485.70,-6.40 485.70,0.00"/>
    <junction id="J3" type="unregulated" x="1500.00" y="0.00" incLanes="E5.187_0 E1.200_0 E1.200_1" intLanes=":J3_0_0 :J3_1_0 :J3_1_1" shape="1498.36,0.00 1498.36,-6.40 1495.36,-6.53 1493.18,-6.91 1491.43,-7.54 1489.74,-8.44 1487.74,-9.61 1485.06,-11.05 1483.63,-8.19 1483.20,-6.40 1483.20,0.00"/>
    <junction id="J4" type="unregulated" x="2500.00" y="0.00" incLanes="E6.188_0 E6.188_1 E2_0 E2_1" intLanes=":J4_0_0 :J4_0_1 :J4_2_0 :J4_2_1" shape="2490.22,0.00 2490.22,-12.80 2489.12,-12.83 2488.74,-12.89 2488.37,-13.01 2487.94,-13.19 2487.37,-13.47 2484.51,-7.75 2485.84,-7.00 2486.16,-6.74 2486.24,-6.55 2486.09,-6.44 2485.70,-6.40 2485.70,0.00"/>
    <junction id="J5" type="dead_end" x="3500.00" y="0.00" incLanes="E3.300_0 E3.300_1" intLanes="" shape="3500.00,-6.40 3500.00,0.00"/>
    <junction id="J6" type="dead_end" x="300.00" y="-100.00" incLanes="" intLanes="" shape="300.00,-100.00 301.43,-102.86"/>
    <junction id="J7" type="dead_end" x="1300.00" y="-100.00" incLanes="" intLanes="" shape="1300.00,-100.00 1301.43,-102.86"/>
    <junction id="J8" type="dead_end" x="2300.00" y="-100.00" incLanes="" intLanes="" shape="2300.00,-100.00 2302.86,-105.72"/>
    <junction id="J9" type="unregulated" x="700.00" y="0.00" incLanes="E1_0 E1_1 E1_2" intLanes=":J9_0_0 :J9_0_1 :J9_0_2" shape="704.00,0.00 704.00,-6.40 700.97,-7.23 699.03,-8.77 697.79,-9.36 696.00,-9.60 696.00,0.00"/>

    <connection from="E0" to="E0.259" fromLane="0" toLane="0" via=":J13_0_0" dir="s" state="M"/>
    <connection from="E0" to="E0.259" fromLane="1" toLane="1" via=":J13_0_1" dir="s" state="M"/>
    <connection from="E0.259" to="E1" fromLane="0" toLane="1" via=":J2_1_0" dir="s" state="M"/>
    <connection from="E0.259" to="E1" fromLane="1" toLane="2" via=":J2_1_1" dir="s" state="M"/>
    <connection from="E1" to="E1.200" fromLane="0" toLane="0" via=":J9_0_0" dir="s" state="M"/>
    <connection from="E1" to="E1.200" fromLane="1" toLane="0" keepClear="0" via=":J9_0_1" dir="s" state="M"/>
    <connection from="E1" to="E1.200" fromLane="2" toLane="1" keepClear="0" via=":J9_0_2" dir="s" state="M"/>
    <connection from="E1.200" to="E2" fromLane="0" toLane="0" via=":J3_1_0" dir="s" state="M"/>
    <connection from="E1.200" to="E2" fromLane="1" toLane="1" via=":J3_1_1" dir="s" state="M"/>
    <connection from="E2" to="E3" fromLane="0" toLane="2" via=":J4_2_0" dir="s" state="M"/>
    <connection from="E2" to="E3" fromLane="1" toLane="3" via=":J4_2_1" dir="s" state="M"/>
    <connection from="E3" to="E3.300" fromLane="0" toLane="0" via=":J10_0_0" dir="s" state="M"/>
    <connection from="E3" to="E3.300" fromLane="1" toLane="0" via=":J10_0_1" dir="s" state="M"/>
    <connection from="E3" to="E3.300" fromLane="2" toLane="0" keepClear="0" via=":J10_0_2" dir="s" state="M"/>
    <connection from="E3" to="E3.300" fromLane="3" toLane="1" keepClear="0" via=":J10_0_3" dir="s" state="M"/>
    <connection from="E4" to="E4.79" fromLane="0" toLane="0" via=":J14_0_0" dir="s" state="M"/>
    <connection from="E4.177" to="E1" fromLane="0" toLane="0" via=":J2_0_0" dir="s" state="M"/>
    <connection from="E4.79" to="E4.177" fromLane="0" toLane="0" via=":J0_0_0" tl="J0" linkIndex="0" dir="s" state="O"/>
    <connection from="E5" to="E5.75" fromLane="0" toLane="0" via=":J15_0_0" dir="s" state="M"/>
    <connection from="E5.187" to="E2" fromLane="0" toLane="0" via=":J3_0_0" dir="s" state="M"/>
    <connection from="E5.75" to="E5.187" fromLane="0" toLane="0" via=":J11_0_0" tl="J11" linkIndex="0" dir="s" state="O"/>
    <connection from="E6" to="E6.82" fromLane="0" toLane="0" via=":J16_0_0" dir="s" state="M"/>
    <connection from="E6" to="E6.82" fromLane="1" toLane="1" via=":J16_0_1" dir="s" state="M"/>
    <connection from="E6.188" to="E3" fromLane="0" toLane="0" via=":J4_0_0" dir="s" state="M"/>
    <connection from="E6.188" to="E3" fromLane="1" toLane="1" via=":J4_0_1" dir="s" state="M"/>
    <connection from="E6.82" to="E6.188" fromLane="0" toLane="0" via=":J12_0_0" tl="J12" linkIndex="0" dir="s" state="O"/>
    <connection from="E6.82" to="E6.188" fromLane="1" toLane="1" via=":J12_0_1" tl="J12" linkIndex="1" dir="s" state="O"/>

    <connection from=":J0_0" to="E4.177" fromLane="0" toLane="0" dir="s" state="M"/>
    <connection from=":J10_0" to="E3.300" fromLane="0" toLane="0" dir="s" state="M"/>
    <connection from=":J10_0" to="E3.300" fromLane="1" toLane="0" dir="s" state="M"/>
    <connection from=":J10_0" to="E3.300" fromLane="2" toLane="0" dir="s" state="M"/>
    <connection from=":J10_0" to="E3.300" fromLane="3" toLane="1" dir="s" state="M"/>
    <connection from=":J11_0" to="E5.187" fromLane="0" toLane="0" dir="s" state="M"/>
    <connection from=":J12_0" to="E6.188" fromLane="0" toLane="0" dir="s" state="M"/>
    <connection from=":J12_0" to="E6.188" fromLane="1" toLane="1" dir="s" state="M"/>
    <connection from=":J13_0" to="E0.259" fromLane="0" toLane="0" dir="s" state="M"/>
    <connection from=":J13_0" to="E0.259" fromLane="1" toLane="1" dir="s" state="M"/>
    <connection from=":J14_0" to="E4.79" fromLane="0" toLane="0" dir="s" state="M"/>
    <connection from=":J15_0" to="E5.75" fromLane="0" toLane="0" dir="s" state="M"/>
    <connection from=":J16_0" to="E6.82" fromLane="0" toLane="0" dir="s" state="M"/>
    <connection from=":J16_0" to="E6.82" fromLane="1" toLane="1" dir="s" state="M"/>
    <connection from=":J2_0" to="E1" fromLane="0" toLane="0" dir="s" state="M"/>
    <connection from=":J2_1" to="E1" fromLane="0" toLane="1" dir="s" state="M"/>
    <connection from=":J2_1" to="E1" fromLane="1" toLane="2" dir="s" state="M"/>
    <connection from=":J3_0" to="E2" fromLane="0" toLane="0" dir="s" state="M"/>
    <connection from=":J3_1" to="E2" fromLane="0" toLane="0" dir="s" state="M"/>
    <connection from=":J3_1" to="E2" fromLane="1" toLane="1" dir="s" state="M"/>
    <connection from=":J4_0" to="E3" fromLane="0" toLane="0" dir="s" state="M"/>
    <connection from=":J4_0" to="E3" fromLane="1" toLane="1" dir="s" state="M"/>
    <connection from=":J4_2" to="E3" fromLane="0" toLane="2" dir="s" state="M"/>
    <connection from=":J4_2" to="E3" fromLane="1" toLane="3" dir="s" state="M"/>
    <connection from=":J9_0" to="E1.200" fromLane="0" toLane="0" dir="s" state="M"/>
    <connection from=":J9_0" to="E1.200" fromLane="1" toLane="0" dir="s" state="M"/>
    <connection from=":J9_0" to="E1.200" fromLane="2" toLane="1" dir="s" state="M"/>

</net>
