<?xml version="1.0" encoding="UTF-8"?>

<!-- generated on 2024-11-20 13:45:25 by Eclipse SUMO netedit Version 1.19.0
-->

<routes xmlns:xsi="http://www.w3.org/2001/XMLSchema-instance" xsi:noNamespaceSchemaLocation="http://sumo.dlr.de/xsd/routes_file.xsd">
    <!-- VTypes -->
    <vType id="DEFAULT_BUS" vClass="bus"/>
	
    <!-- Routes -->
    <route id="route_101" edges="384338154#2 23320397#1 23320399 23320401#0 23320401#1 23320401#2 23320401#3 -384338153#1 -384338153#0 135078198 1162834479#1 E7 E8 -758088380#0 -696225646#3 -696225646#2 -696225646#1 696225651#0 696225651#1 -22889927#4 -22889927#3 -22889927#2 -22889927#0 -758088377#2 -758088377#1 -E1 -E3 -38361908#1 -183049933#0 E17 E18 183419043#1 183419043#2 183419042#1 183419042#3 183419042#4 183419042#5 183419042#7 183419042#8 183419042#9"/>
    <route id="route_R101" edges="-183419042#9 -183419042#8 -183419042#7 -183419042#6 -183419042#4 -183419042#3 -183419042#1 26249185#0 26249185#1 26249185#30 183049934 1164287131#0 183049933#0 38361908#1 E3 E1 758088377#1 758088377#2 22889927#0 22889927#2 22889927#3 22889927#4 387296014#0 387296014#1 696225646#1 696225646#2 696225646#3 130569446 E5 E6 -E10 -E9 -1162834479#1 -1162834479#0 384338153#0 384338153#1 384338154#0 384338154#1 384338154#2"/>

    <route id="route_102" edges="283020993#1 283020993#2 283020993#3 -25973409#3 -25973409#2 -25973409#1 -E19 -4811464 4807776 758088375#0 38361908#1 E3 E4 23725458#3 23725458#4 23725458#5 281956705#0"/>
    <route id="route_R102" edges="-281956705#3 -23725458#5 -23725458#4 -23725458#3 -E4 -E3 -38361908#1 -758088375#0 -4807776 -23059834#2 -23059834#1 -283020995 283020996#0 283020996#1 25973409#3 -283020993#3 -283020993#2 -283020993#1"/>

    <route id="route_103" edges="283020993#1 283020993#2 283020993#3 -25973409#3 -25973409#2 -25973409#1 -E19 -4811464 4807776 758088375#0 38361908#1 E3 E4 23725458#3 23725458#4 23725458#5 281956705#0"/>
    <route id="route_R103" edges="-281956705#3 -23725458#5 -23725458#4 -23725458#3 -E4 -E3 -38361908#1 -758088375#0 -4807776 -23059834#2 -23059834#1 -283020995 283020996#0 283020996#1 25973409#3 -283020993#3 -283020993#2 -283020993#1"/>

    <route id="route_106" edges="-37181834#3 -37181834#2 E13 E15 -E6 -E5 -758088380#0 -696225646#3 -696225646#2 -696225646#1 696225651#0 696225651#1 -22889927#4 -22889927#3 -22889927#2 -22889927#0 -758088377#2 -758088377#1 -E1 -E3 -38361908#1 -183049933#0 E17 E18 183419043#1 183419043#2 183419042#1 183419042#3 183419042#4 183419042#5 183419042#7 183419042#8 183419042#9"/>
    <route id="route_R106" edges="-183419042#9 -183419042#8 -183419042#7 -183419042#6 -183419042#4 -183419042#3 -183419042#1 26249185#0 26249185#1 26249185#30 183049934 1164287131#0 183049933#0 38361908#1 E3 E1 758088377#1 758088377#2 22889927#0 22889927#2 22889927#3 22889927#4 387296014#0 387296014#1 696225646#1 696225646#2 696225646#3 130569446 E5 E6 -E15 -E13 37181834#2 37181834#3"/>

    <route id="route_114" edges="-37181834#3 -37181834#2 E13 E15 -E6 -E5 -758088380#0 -696225646#3 -696225646#2 -696225646#1 696225651#0 696225651#1 -22889927#4 -22889927#3 -22889927#2 -22889927#0 -758088377#2 -758088377#1 -E1 -E3 -38361908#1 -183049933#0 E17 E18 183419043#1 183419043#2 183419042#1 183419042#3 183419042#4 183419042#5 183419042#7 183419042#8 183419042#9"/>
    <route id="route_R114" edges="-183419042#9 -183419042#8 -183419042#7 -183419042#6 -183419042#4 -183419042#3 -183419042#1 26249185#0 26249185#1 26249185#30 183049934 1164287131#0 183049933#0 38361908#1 E3 E1 758088377#1 758088377#2 22889927#0 22889927#2 22889927#3 22889927#4 387296014#0 387296014#1 696225646#1 696225646#2 696225646#3 130569446 E5 E6 -E15 -E13 37181834#2 37181834#3"/>

    <route id="route_114A" edges="-37181834#3 -37181834#2 E13 E15 -E6 -E5 -758088380#0 394114218#1 394114218#3"/>
    <route id="route_R114A" edges="-394114218#3 -394114218#1 130569446 E5 E6 -E15 -E13 37181834#2 37181834#3"/>

    <route id="route_115" edges="-23999291#1 -23999291#0 -1169441387 -1169441388 -1169441386 -331752492#1 -331752492#0 183419043#0 183419043#1 183419043#2 183419042#1 183419042#3 183419042#4 183419042#5 183419042#7 183419042#8 183419042#9"/>
    <route id="route_R115" edges="-183419042#9 -183419042#8 -183419042#7 -183419042#6 -183419042#4 -183419042#3 -183419042#1 26249185#0 26249185#1 26249185#30 331752492#0 331752492#1 331752492#2 331752494 1169441387 23999291#0 23999291#1"/>

    <route id="route_140" edges="-23999291#1 -23999291#0 -1169441387 -1169441388 -1169441386 -331752492#1 -331752492#0 183419043#0 183419043#1 183419043#2 183419042#1 183419042#3 183419042#4 183419042#5 183419042#7 183419042#8 183419042#9"/>
    <route id="route_R140" edges="-183419042#9 -183419042#8 -183419042#7 -183419042#6 -183419042#4 -183419042#3 -183419042#1 26249185#0 26249185#1 26249185#30 331752492#0 331752492#1 331752492#2 331752494 1169441387 23999291#0 23999291#1"/>

    <route id="route_132" edges="-281956705#3 -23725458#5 -23725458#4 -23725458#3 -E4 -E3 -38361908#1 -758088375#0 -4807776 4811464 E19 25973409#1 25973409#2 25973409#3 -283020993#3 -283020993#2 -283020993#1"/>
    <route id="route_R132" edges="-394114218#3 -394114218#1 -696225646#3 -696225646#2 -696225646#1 696225651#0 696225651#1 -22889927#4 -22889927#3 -22889927#2 -22889927#0 -758088377#2 -758088377#1 -E1 E4 23725458#3 23725458#4 23725458#5 281956705#0"/>

    <route id="route_138" edges="-E16 45524884#1 384338153#0 384338153#1 384338154#0 384338154#1 384338154#2 23320397#1 23320399 23320401#0 23320401#1 23320401#2 23320401#3 -384338153#1 -384338153#0 135078198 1162834479#1 E7 E8 -758088380#0 394114218#1 394114218#3"/>
    <route id="route_R138" edges="-394114218#3 -394114218#1 130569446 E5 E6 -E10 -E9 -1162834479#1 -1162834479#0 384338153#0 384338153#1 384338154#0 384338154#1 384338154#2 23320397#1 23320399 23320401#0 23320401#1 23320401#2 23320401#3 -384338153#1 -384338153#0 -45524884#1 E16"/>

    <route id="route_RN16" edges="-37181834#3 -37181834#2 E13 E15 -E6 -E5 -758088380#0 -696225646#3 -696225646#2 -696225646#1 -387296014#1 -387296014#0 -22889927#4 -22889927#3 -22889927#2 -22889927#0 -758088377#2 -758088377#1 -E1 -E3 -38361908#1 -183049933#0 E17 E18 183419043#1 183419043#2 183419042#1 183419042#3 183419042#4 183419042#5 183419042#7 183419042#8 183419042#9"/>
    <route id="route_N16" edges="-183419042#9 -183419042#8 -183419042#7 -183419042#6 -183419042#4 -183419042#3 -183419042#1 26249185#0 26249185#1 26249185#30 183049934 1164287131#0 183049933#0 38361908#1 E3 E1 758088377#1 758088377#2 22889927#0 22889927#2 22889927#3 22889927#4 387296014#0 387296014#1 696225646#1 696225646#2 696225646#3 130569446 E5 E6 -E15 -E13 37181834#2 37181834#3"/>

	<!-- Bus Trips -->
    <vehicle id="bus_route_101_1" type="DEFAULT_BUS" route="route_101" depart="16020">
        <stop busStop="bs_0" duration="20.00" />
        <stop busStop="bs_17" duration="20.00" />
        <stop busStop="bs_2" duration="20.00" />
        <stop busStop="bs_3" duration="20.00" />
        <stop busStop="bs_4" duration="20.00" />
    </vehicle>
    <vehicle id="bus_route_101_2" type="DEFAULT_BUS" route="route_101" depart="17820">
        <stop busStop="bs_0" duration="20.00" />
        <stop busStop="bs_17" duration="20.00" />
        <stop busStop="bs_2" duration="20.00" />
        <stop busStop="bs_3" duration="20.00" />
        <stop busStop="bs_4" duration="20.00" />
    </vehicle>
    <vehicle id="bus_route_101_3" type="DEFAULT_BUS" route="route_101" depart="18720">
        <stop busStop="bs_0" duration="20.00" />
        <stop busStop="bs_17" duration="20.00" />
        <stop busStop="bs_2" duration="20.00" />
        <stop busStop="bs_3" duration="20.00" />
        <stop busStop="bs_4" duration="20.00" />
    </vehicle>
    <vehicle id="bus_route_101_4" type="DEFAULT_BUS" route="route_101" depart="19620">
        <stop busStop="bs_0" duration="20.00" />
        <stop busStop="bs_17" duration="20.00" />
        <stop busStop="bs_2" duration="20.00" />
        <stop busStop="bs_3" duration="20.00" />
        <stop busStop="bs_4" duration="20.00" />
    </vehicle>
    <vehicle id="bus_route_101_5" type="DEFAULT_BUS" route="route_101" depart="20520">
        <stop busStop="bs_0" duration="20.00" />
        <stop busStop="bs_17" duration="20.00" />
        <stop busStop="bs_2" duration="20.00" />
        <stop busStop="bs_3" duration="20.00" />
        <stop busStop="bs_4" duration="20.00" />
    </vehicle>
    <vehicle id="bus_route_101_6" type="DEFAULT_BUS" route="route_101" depart="21420">
        <stop busStop="bs_0" duration="20.00" />
        <stop busStop="bs_17" duration="20.00" />
        <stop busStop="bs_2" duration="20.00" />
        <stop busStop="bs_3" duration="20.00" />
        <stop busStop="bs_4" duration="20.00" />
    </vehicle>
    <vehicle id="bus_route_101_7" type="DEFAULT_BUS" route="route_101" depart="22320">
        <stop busStop="bs_0" duration="20.00" />
        <stop busStop="bs_17" duration="20.00" />
        <stop busStop="bs_2" duration="20.00" />
        <stop busStop="bs_3" duration="20.00" />
        <stop busStop="bs_4" duration="20.00" />
    </vehicle>
    <vehicle id="bus_route_101_8" type="DEFAULT_BUS" route="route_101" depart="23220">
        <stop busStop="bs_0" duration="20.00" />
        <stop busStop="bs_17" duration="20.00" />
        <stop busStop="bs_2" duration="20.00" />
        <stop busStop="bs_3" duration="20.00" />
        <stop busStop="bs_4" duration="20.00" />
    </vehicle>
    <vehicle id="bus_route_101_9" type="DEFAULT_BUS" route="route_101" depart="24120">
        <stop busStop="bs_0" duration="20.00" />
        <stop busStop="bs_17" duration="20.00" />
        <stop busStop="bs_2" duration="20.00" />
        <stop busStop="bs_3" duration="20.00" />
        <stop busStop="bs_4" duration="20.00" />
    </vehicle>
    <vehicle id="bus_route_101_10" type="DEFAULT_BUS" route="route_101" depart="25020">
        <stop busStop="bs_0" duration="20.00" />
        <stop busStop="bs_17" duration="20.00" />
        <stop busStop="bs_2" duration="20.00" />
        <stop busStop="bs_3" duration="20.00" />
        <stop busStop="bs_4" duration="20.00" />
    </vehicle>
    <vehicle id="bus_route_101_11" type="DEFAULT_BUS" route="route_101" depart="25920">
        <stop busStop="bs_0" duration="20.00" />
        <stop busStop="bs_17" duration="20.00" />
        <stop busStop="bs_2" duration="20.00" />
        <stop busStop="bs_3" duration="20.00" />
        <stop busStop="bs_4" duration="20.00" />
    </vehicle>
    <vehicle id="bus_route_101_12" type="DEFAULT_BUS" route="route_101" depart="26820">
        <stop busStop="bs_0" duration="20.00" />
        <stop busStop="bs_17" duration="20.00" />
        <stop busStop="bs_2" duration="20.00" />
        <stop busStop="bs_3" duration="20.00" />
        <stop busStop="bs_4" duration="20.00" />
    </vehicle>
    <vehicle id="bus_route_101_13" type="DEFAULT_BUS" route="route_101" depart="27720">
        <stop busStop="bs_0" duration="20.00" />
        <stop busStop="bs_17" duration="20.00" />
        <stop busStop="bs_2" duration="20.00" />
        <stop busStop="bs_3" duration="20.00" />
        <stop busStop="bs_4" duration="20.00" />
    </vehicle>
    <vehicle id="bus_route_101_14" type="DEFAULT_BUS" route="route_101" depart="28620">
        <stop busStop="bs_0" duration="20.00" />
        <stop busStop="bs_17" duration="20.00" />
        <stop busStop="bs_2" duration="20.00" />
        <stop busStop="bs_3" duration="20.00" />
        <stop busStop="bs_4" duration="20.00" />
    </vehicle>
    <vehicle id="bus_route_101_15" type="DEFAULT_BUS" route="route_101" depart="29520">
        <stop busStop="bs_0" duration="20.00" />
        <stop busStop="bs_17" duration="20.00" />
        <stop busStop="bs_2" duration="20.00" />
        <stop busStop="bs_3" duration="20.00" />
        <stop busStop="bs_4" duration="20.00" />
    </vehicle>
    <vehicle id="bus_route_101_16" type="DEFAULT_BUS" route="route_101" depart="30420">
        <stop busStop="bs_0" duration="20.00" />
        <stop busStop="bs_17" duration="20.00" />
        <stop busStop="bs_2" duration="20.00" />
        <stop busStop="bs_3" duration="20.00" />
        <stop busStop="bs_4" duration="20.00" />
    </vehicle>
    <vehicle id="bus_route_101_17" type="DEFAULT_BUS" route="route_101" depart="31320">
        <stop busStop="bs_0" duration="20.00" />
        <stop busStop="bs_17" duration="20.00" />
        <stop busStop="bs_2" duration="20.00" />
        <stop busStop="bs_3" duration="20.00" />
        <stop busStop="bs_4" duration="20.00" />
    </vehicle>
    <vehicle id="bus_route_101_18" type="DEFAULT_BUS" route="route_101" depart="32220">
        <stop busStop="bs_0" duration="20.00" />
        <stop busStop="bs_17" duration="20.00" />
        <stop busStop="bs_2" duration="20.00" />
        <stop busStop="bs_3" duration="20.00" />
        <stop busStop="bs_4" duration="20.00" />
    </vehicle>
    <vehicle id="bus_route_101_19" type="DEFAULT_BUS" route="route_101" depart="33120">
        <stop busStop="bs_0" duration="20.00" />
        <stop busStop="bs_17" duration="20.00" />
        <stop busStop="bs_2" duration="20.00" />
        <stop busStop="bs_3" duration="20.00" />
        <stop busStop="bs_4" duration="20.00" />
    </vehicle>
    <vehicle id="bus_route_101_20" type="DEFAULT_BUS" route="route_101" depart="34020">
        <stop busStop="bs_0" duration="20.00" />
        <stop busStop="bs_17" duration="20.00" />
        <stop busStop="bs_2" duration="20.00" />
        <stop busStop="bs_3" duration="20.00" />
        <stop busStop="bs_4" duration="20.00" />
    </vehicle>
    <vehicle id="bus_route_101_21" type="DEFAULT_BUS" route="route_101" depart="34920">
        <stop busStop="bs_0" duration="20.00" />
        <stop busStop="bs_17" duration="20.00" />
        <stop busStop="bs_2" duration="20.00" />
        <stop busStop="bs_3" duration="20.00" />
        <stop busStop="bs_4" duration="20.00" />
    </vehicle>
    <vehicle id="bus_route_101_22" type="DEFAULT_BUS" route="route_101" depart="35820">
        <stop busStop="bs_0" duration="20.00" />
        <stop busStop="bs_17" duration="20.00" />
        <stop busStop="bs_2" duration="20.00" />
        <stop busStop="bs_3" duration="20.00" />
        <stop busStop="bs_4" duration="20.00" />
    </vehicle>
    <vehicle id="bus_route_101_23" type="DEFAULT_BUS" route="route_101" depart="36720">
        <stop busStop="bs_0" duration="20.00" />
        <stop busStop="bs_17" duration="20.00" />
        <stop busStop="bs_2" duration="20.00" />
        <stop busStop="bs_3" duration="20.00" />
        <stop busStop="bs_4" duration="20.00" />
    </vehicle>
    <vehicle id="bus_route_101_24" type="DEFAULT_BUS" route="route_101" depart="37620">
        <stop busStop="bs_0" duration="20.00" />
        <stop busStop="bs_17" duration="20.00" />
        <stop busStop="bs_2" duration="20.00" />
        <stop busStop="bs_3" duration="20.00" />
        <stop busStop="bs_4" duration="20.00" />
    </vehicle>
    <vehicle id="bus_route_101_25" type="DEFAULT_BUS" route="route_101" depart="38520">
        <stop busStop="bs_0" duration="20.00" />
        <stop busStop="bs_17" duration="20.00" />
        <stop busStop="bs_2" duration="20.00" />
        <stop busStop="bs_3" duration="20.00" />
        <stop busStop="bs_4" duration="20.00" />
    </vehicle>
    <vehicle id="bus_route_101_26" type="DEFAULT_BUS" route="route_101" depart="39420">
        <stop busStop="bs_0" duration="20.00" />
        <stop busStop="bs_17" duration="20.00" />
        <stop busStop="bs_2" duration="20.00" />
        <stop busStop="bs_3" duration="20.00" />
        <stop busStop="bs_4" duration="20.00" />
    </vehicle>
    <vehicle id="bus_route_101_27" type="DEFAULT_BUS" route="route_101" depart="40320">
        <stop busStop="bs_0" duration="20.00" />
        <stop busStop="bs_17" duration="20.00" />
        <stop busStop="bs_2" duration="20.00" />
        <stop busStop="bs_3" duration="20.00" />
        <stop busStop="bs_4" duration="20.00" />
    </vehicle>
    <vehicle id="bus_route_101_28" type="DEFAULT_BUS" route="route_101" depart="41220">
        <stop busStop="bs_0" duration="20.00" />
        <stop busStop="bs_17" duration="20.00" />
        <stop busStop="bs_2" duration="20.00" />
        <stop busStop="bs_3" duration="20.00" />
        <stop busStop="bs_4" duration="20.00" />
    </vehicle>
    <vehicle id="bus_route_101_29" type="DEFAULT_BUS" route="route_101" depart="42120">
        <stop busStop="bs_0" duration="20.00" />
        <stop busStop="bs_17" duration="20.00" />
        <stop busStop="bs_2" duration="20.00" />
        <stop busStop="bs_3" duration="20.00" />
        <stop busStop="bs_4" duration="20.00" />
    </vehicle>
    <vehicle id="bus_route_101_30" type="DEFAULT_BUS" route="route_101" depart="43020">
        <stop busStop="bs_0" duration="20.00" />
        <stop busStop="bs_17" duration="20.00" />
        <stop busStop="bs_2" duration="20.00" />
        <stop busStop="bs_3" duration="20.00" />
        <stop busStop="bs_4" duration="20.00" />
    </vehicle>
    <vehicle id="bus_route_101_31" type="DEFAULT_BUS" route="route_101" depart="43920">
        <stop busStop="bs_0" duration="20.00" />
        <stop busStop="bs_17" duration="20.00" />
        <stop busStop="bs_2" duration="20.00" />
        <stop busStop="bs_3" duration="20.00" />
        <stop busStop="bs_4" duration="20.00" />
    </vehicle>
    <vehicle id="bus_route_101_32" type="DEFAULT_BUS" route="route_101" depart="44820">
        <stop busStop="bs_0" duration="20.00" />
        <stop busStop="bs_17" duration="20.00" />
        <stop busStop="bs_2" duration="20.00" />
        <stop busStop="bs_3" duration="20.00" />
        <stop busStop="bs_4" duration="20.00" />
    </vehicle>
    <vehicle id="bus_route_101_33" type="DEFAULT_BUS" route="route_101" depart="45720">
        <stop busStop="bs_0" duration="20.00" />
        <stop busStop="bs_17" duration="20.00" />
        <stop busStop="bs_2" duration="20.00" />
        <stop busStop="bs_3" duration="20.00" />
        <stop busStop="bs_4" duration="20.00" />
    </vehicle>
    <vehicle id="bus_route_101_34" type="DEFAULT_BUS" route="route_101" depart="46620">
        <stop busStop="bs_0" duration="20.00" />
        <stop busStop="bs_17" duration="20.00" />
        <stop busStop="bs_2" duration="20.00" />
        <stop busStop="bs_3" duration="20.00" />
        <stop busStop="bs_4" duration="20.00" />
    </vehicle>
    <vehicle id="bus_route_101_35" type="DEFAULT_BUS" route="route_101" depart="47040">
        <stop busStop="bs_0" duration="20.00" />
        <stop busStop="bs_17" duration="20.00" />
        <stop busStop="bs_2" duration="20.00" />
        <stop busStop="bs_3" duration="20.00" />
        <stop busStop="bs_4" duration="20.00" />
    </vehicle>
    <vehicle id="bus_route_101_36" type="DEFAULT_BUS" route="route_101" depart="47520">
        <stop busStop="bs_0" duration="20.00" />
        <stop busStop="bs_17" duration="20.00" />
        <stop busStop="bs_2" duration="20.00" />
        <stop busStop="bs_3" duration="20.00" />
        <stop busStop="bs_4" duration="20.00" />
    </vehicle>
    <vehicle id="bus_route_101_37" type="DEFAULT_BUS" route="route_101" depart="48420">
        <stop busStop="bs_0" duration="20.00" />
        <stop busStop="bs_17" duration="20.00" />
        <stop busStop="bs_2" duration="20.00" />
        <stop busStop="bs_3" duration="20.00" />
        <stop busStop="bs_4" duration="20.00" />
    </vehicle>
    <vehicle id="bus_route_101_38" type="DEFAULT_BUS" route="route_101" depart="49320">
        <stop busStop="bs_0" duration="20.00" />
        <stop busStop="bs_17" duration="20.00" />
        <stop busStop="bs_2" duration="20.00" />
        <stop busStop="bs_3" duration="20.00" />
        <stop busStop="bs_4" duration="20.00" />
    </vehicle>
    <vehicle id="bus_route_101_39" type="DEFAULT_BUS" route="route_101" depart="50220">
        <stop busStop="bs_0" duration="20.00" />
        <stop busStop="bs_17" duration="20.00" />
        <stop busStop="bs_2" duration="20.00" />
        <stop busStop="bs_3" duration="20.00" />
        <stop busStop="bs_4" duration="20.00" />
    </vehicle>
    <vehicle id="bus_route_101_40" type="DEFAULT_BUS" route="route_101" depart="51120">
        <stop busStop="bs_0" duration="20.00" />
        <stop busStop="bs_17" duration="20.00" />
        <stop busStop="bs_2" duration="20.00" />
        <stop busStop="bs_3" duration="20.00" />
        <stop busStop="bs_4" duration="20.00" />
    </vehicle>
    <vehicle id="bus_route_101_41" type="DEFAULT_BUS" route="route_101" depart="52020">
        <stop busStop="bs_0" duration="20.00" />
        <stop busStop="bs_17" duration="20.00" />
        <stop busStop="bs_2" duration="20.00" />
        <stop busStop="bs_3" duration="20.00" />
        <stop busStop="bs_4" duration="20.00" />
    </vehicle>
    <vehicle id="bus_route_101_42" type="DEFAULT_BUS" route="route_101" depart="52920">
        <stop busStop="bs_0" duration="20.00" />
        <stop busStop="bs_17" duration="20.00" />
        <stop busStop="bs_2" duration="20.00" />
        <stop busStop="bs_3" duration="20.00" />
        <stop busStop="bs_4" duration="20.00" />
    </vehicle>
    <vehicle id="bus_route_101_43" type="DEFAULT_BUS" route="route_101" depart="53820">
        <stop busStop="bs_0" duration="20.00" />
        <stop busStop="bs_17" duration="20.00" />
        <stop busStop="bs_2" duration="20.00" />
        <stop busStop="bs_3" duration="20.00" />
        <stop busStop="bs_4" duration="20.00" />
    </vehicle>
    <vehicle id="bus_route_101_44" type="DEFAULT_BUS" route="route_101" depart="54720">
        <stop busStop="bs_0" duration="20.00" />
        <stop busStop="bs_17" duration="20.00" />
        <stop busStop="bs_2" duration="20.00" />
        <stop busStop="bs_3" duration="20.00" />
        <stop busStop="bs_4" duration="20.00" />
    </vehicle>
    <vehicle id="bus_route_101_45" type="DEFAULT_BUS" route="route_101" depart="55620">
        <stop busStop="bs_0" duration="20.00" />
        <stop busStop="bs_17" duration="20.00" />
        <stop busStop="bs_2" duration="20.00" />
        <stop busStop="bs_3" duration="20.00" />
        <stop busStop="bs_4" duration="20.00" />
    </vehicle>
    <vehicle id="bus_route_101_46" type="DEFAULT_BUS" route="route_101" depart="56520">
        <stop busStop="bs_0" duration="20.00" />
        <stop busStop="bs_17" duration="20.00" />
        <stop busStop="bs_2" duration="20.00" />
        <stop busStop="bs_3" duration="20.00" />
        <stop busStop="bs_4" duration="20.00" />
    </vehicle>
    <vehicle id="bus_route_101_47" type="DEFAULT_BUS" route="route_101" depart="57420">
        <stop busStop="bs_0" duration="20.00" />
        <stop busStop="bs_17" duration="20.00" />
        <stop busStop="bs_2" duration="20.00" />
        <stop busStop="bs_3" duration="20.00" />
        <stop busStop="bs_4" duration="20.00" />
    </vehicle>
    <vehicle id="bus_route_101_48" type="DEFAULT_BUS" route="route_101" depart="58320">
        <stop busStop="bs_0" duration="20.00" />
        <stop busStop="bs_17" duration="20.00" />
        <stop busStop="bs_2" duration="20.00" />
        <stop busStop="bs_3" duration="20.00" />
        <stop busStop="bs_4" duration="20.00" />
    </vehicle>
    <vehicle id="bus_route_101_49" type="DEFAULT_BUS" route="route_101" depart="59220">
        <stop busStop="bs_0" duration="20.00" />
        <stop busStop="bs_17" duration="20.00" />
        <stop busStop="bs_2" duration="20.00" />
        <stop busStop="bs_3" duration="20.00" />
        <stop busStop="bs_4" duration="20.00" />
    </vehicle>
    <vehicle id="bus_route_101_50" type="DEFAULT_BUS" route="route_101" depart="60120">
        <stop busStop="bs_0" duration="20.00" />
        <stop busStop="bs_17" duration="20.00" />
        <stop busStop="bs_2" duration="20.00" />
        <stop busStop="bs_3" duration="20.00" />
        <stop busStop="bs_4" duration="20.00" />
    </vehicle>
    <vehicle id="bus_route_101_51" type="DEFAULT_BUS" route="route_101" depart="61020">
        <stop busStop="bs_0" duration="20.00" />
        <stop busStop="bs_17" duration="20.00" />
        <stop busStop="bs_2" duration="20.00" />
        <stop busStop="bs_3" duration="20.00" />
        <stop busStop="bs_4" duration="20.00" />
    </vehicle>
    <vehicle id="bus_route_101_52" type="DEFAULT_BUS" route="route_101" depart="61920">
        <stop busStop="bs_0" duration="20.00" />
        <stop busStop="bs_17" duration="20.00" />
        <stop busStop="bs_2" duration="20.00" />
        <stop busStop="bs_3" duration="20.00" />
        <stop busStop="bs_4" duration="20.00" />
    </vehicle>
    <vehicle id="bus_route_101_53" type="DEFAULT_BUS" route="route_101" depart="62820">
        <stop busStop="bs_0" duration="20.00" />
        <stop busStop="bs_17" duration="20.00" />
        <stop busStop="bs_2" duration="20.00" />
        <stop busStop="bs_3" duration="20.00" />
        <stop busStop="bs_4" duration="20.00" />
    </vehicle>
    <vehicle id="bus_route_101_54" type="DEFAULT_BUS" route="route_101" depart="63720">
        <stop busStop="bs_0" duration="20.00" />
        <stop busStop="bs_17" duration="20.00" />
        <stop busStop="bs_2" duration="20.00" />
        <stop busStop="bs_3" duration="20.00" />
        <stop busStop="bs_4" duration="20.00" />
    </vehicle>
    <vehicle id="bus_route_101_55" type="DEFAULT_BUS" route="route_101" depart="64620">
        <stop busStop="bs_0" duration="20.00" />
        <stop busStop="bs_17" duration="20.00" />
        <stop busStop="bs_2" duration="20.00" />
        <stop busStop="bs_3" duration="20.00" />
        <stop busStop="bs_4" duration="20.00" />
    </vehicle>
    <vehicle id="bus_route_101_56" type="DEFAULT_BUS" route="route_101" depart="65520">
        <stop busStop="bs_0" duration="20.00" />
        <stop busStop="bs_17" duration="20.00" />
        <stop busStop="bs_2" duration="20.00" />
        <stop busStop="bs_3" duration="20.00" />
        <stop busStop="bs_4" duration="20.00" />
    </vehicle>
    <vehicle id="bus_route_101_57" type="DEFAULT_BUS" route="route_101" depart="66420">
        <stop busStop="bs_0" duration="20.00" />
        <stop busStop="bs_17" duration="20.00" />
        <stop busStop="bs_2" duration="20.00" />
        <stop busStop="bs_3" duration="20.00" />
        <stop busStop="bs_4" duration="20.00" />
    </vehicle>
    <vehicle id="bus_route_101_58" type="DEFAULT_BUS" route="route_101" depart="67320">
        <stop busStop="bs_0" duration="20.00" />
        <stop busStop="bs_17" duration="20.00" />
        <stop busStop="bs_2" duration="20.00" />
        <stop busStop="bs_3" duration="20.00" />
        <stop busStop="bs_4" duration="20.00" />
    </vehicle>
    <vehicle id="bus_route_101_59" type="DEFAULT_BUS" route="route_101" depart="68220">
        <stop busStop="bs_0" duration="20.00" />
        <stop busStop="bs_17" duration="20.00" />
        <stop busStop="bs_2" duration="20.00" />
        <stop busStop="bs_3" duration="20.00" />
        <stop busStop="bs_4" duration="20.00" />
    </vehicle>
    <vehicle id="bus_route_101_60" type="DEFAULT_BUS" route="route_101" depart="69120">
        <stop busStop="bs_0" duration="20.00" />
        <stop busStop="bs_17" duration="20.00" />
        <stop busStop="bs_2" duration="20.00" />
        <stop busStop="bs_3" duration="20.00" />
        <stop busStop="bs_4" duration="20.00" />
    </vehicle>
    <vehicle id="bus_route_101_61" type="DEFAULT_BUS" route="route_101" depart="70260">
        <stop busStop="bs_0" duration="20.00" />
        <stop busStop="bs_17" duration="20.00" />
        <stop busStop="bs_2" duration="20.00" />
        <stop busStop="bs_3" duration="20.00" />
        <stop busStop="bs_4" duration="20.00" />
    </vehicle>
    <vehicle id="bus_route_101_62" type="DEFAULT_BUS" route="route_101" depart="72060">
        <stop busStop="bs_0" duration="20.00" />
        <stop busStop="bs_17" duration="20.00" />
        <stop busStop="bs_2" duration="20.00" />
        <stop busStop="bs_3" duration="20.00" />
        <stop busStop="bs_4" duration="20.00" />
    </vehicle>
    <vehicle id="bus_route_101_63" type="DEFAULT_BUS" route="route_101" depart="73860">
        <stop busStop="bs_0" duration="20.00" />
        <stop busStop="bs_17" duration="20.00" />
        <stop busStop="bs_2" duration="20.00" />
        <stop busStop="bs_3" duration="20.00" />
        <stop busStop="bs_4" duration="20.00" />
    </vehicle>
    <vehicle id="bus_route_101_64" type="DEFAULT_BUS" route="route_101" depart="75660">
        <stop busStop="bs_0" duration="20.00" />
        <stop busStop="bs_17" duration="20.00" />
        <stop busStop="bs_2" duration="20.00" />
        <stop busStop="bs_3" duration="20.00" />
        <stop busStop="bs_4" duration="20.00" />
    </vehicle>
    <vehicle id="bus_route_101_65" type="DEFAULT_BUS" route="route_101" depart="77460">
        <stop busStop="bs_0" duration="20.00" />
        <stop busStop="bs_17" duration="20.00" />
        <stop busStop="bs_2" duration="20.00" />
        <stop busStop="bs_3" duration="20.00" />
        <stop busStop="bs_4" duration="20.00" />
    </vehicle>
    <vehicle id="bus_route_101_66" type="DEFAULT_BUS" route="route_101" depart="79260">
        <stop busStop="bs_0" duration="20.00" />
        <stop busStop="bs_17" duration="20.00" />
        <stop busStop="bs_2" duration="20.00" />
        <stop busStop="bs_3" duration="20.00" />
        <stop busStop="bs_4" duration="20.00" />
    </vehicle>
    <vehicle id="bus_route_101_67" type="DEFAULT_BUS" route="route_101" depart="81060">
        <stop busStop="bs_0" duration="20.00" />
        <stop busStop="bs_17" duration="20.00" />
        <stop busStop="bs_2" duration="20.00" />
        <stop busStop="bs_3" duration="20.00" />